100930184
 OpenBabel06082519392D

131138  0  0  1  0  0  0  0  0999 V2000
   12.3923   -0.9386    0.0000 O   0  0  0  0  0  0  0  0  0  0  0  0
   10.6603    1.0614    0.0000 O   0  0  0  0  0  0  0  0  0  0  0  0
   11.5263   -2.4386    0.0000 O   0  0  0  0  0  0  0  0  0  0  0  0
   12.3923    1.0614    0.0000 O   0  0  0  0  0  0  0  0  0  0  0  0
   10.6603   -1.9386    0.0000 O   0  0  0  0  0  0  0  0  0  0  0  0
    8.9282   -0.9386    0.0000 O   0  0  0  0  0  0  0  0  0  0  0  0
   14.1244   -1.9386    0.0000 O   0  0  0  0  0  0  0  0  0  0  0  0
   14.1244   -3.9386    0.0000 O   0  0  0  0  0  0  0  0  0  0  0  0
   12.3923   -4.9386    0.0000 O   0  0  0  0  0  0  0  0  0  0  0  0
    8.0622    0.5614    0.0000 O   0  0  0  0  0  0  0  0  0  0  0  0
   10.6603   -4.9386    0.0000 O   0  0  0  0  0  0  0  0  0  0  0  0
    8.0242    3.5382    0.0000 O   0  0  0  0  0  0  0  0  0  0  0  0
    9.7561    3.5583    0.0000 O   0  0  0  0  0  0  0  0  0  0  0  0
    7.9895    6.5380    0.0000 O   0  0  0  0  0  0  0  0  0  0  0  0
    6.2691    5.5181    0.0000 O   0  0  0  0  0  0  0  0  0  0  0  0
    9.7330    5.5581    0.0000 O   0  0  0  0  0  0  0  0  0  0  0  0
   13.2583    3.5614    0.0000 O   0  3  0  0  0  0  0  0  0  0  0  0
    5.4205    4.0082    0.0000 O   0  0  0  0  0  0  0  0  0  0  0  0
    7.1962    2.0614    0.0000 O   0  0  0  0  0  0  0  0  0  0  0  0
    8.9282   -4.9386    0.0000 O   0  0  0  0  0  0  0  0  0  0  0  0
   11.5142    6.6307    0.0000 O   0  0  0  0  0  0  0  0  0  0  0  0
   16.7224    2.5614    0.0000 O   0  0  0  0  0  0  0  0  0  0  0  0
   16.7224    0.5614    0.0000 O   0  0  0  0  0  0  0  0  0  0  0  0
    2.0000    1.0614    0.0000 O   0  0  0  0  0  0  0  0  0  0  0  0
    7.1962   -3.9386    0.0000 O   0  0  0  0  0  0  0  0  0  0  0  0
    2.0000   -0.9386    0.0000 O   0  0  0  0  0  0  0  0  0  0  0  0
    5.4641   -4.9386    0.0000 O   0  0  0  0  0  0  0  0  0  0  0  0
   11.5263   -0.4386    0.0000 C   0  0  2  0  0  0  0  0  0  0  0  0
   10.6603   -0.9386    0.0000 C   0  0  2  0  0  0  0  0  0  0  0  0
    9.7942   -0.4386    0.0000 C   0  0  1  0  0  0  0  0  0  0  0  0
   12.3923   -1.9386    0.0000 C   0  0  2  0  0  0  0  0  0  0  0  0
   13.2583   -2.4386    0.0000 C   0  0  1  0  0  0  0  0  0  0  0  0
   11.5263    0.5614    0.0000 C   0  0  1  0  0  0  0  0  0  0  0  0
    9.7942    0.5614    0.0000 C   0  0  1  0  0  0  0  0  0  0  0  0
   13.2583   -3.4386    0.0000 C   0  0  2  0  0  0  0  0  0  0  0  0
   12.3923   -3.9386    0.0000 C   0  0  1  0  0  0  0  0  0  0  0  0
   11.5263   -3.4386    0.0000 C   0  0  1  0  0  0  0  0  0  0  0  0
    8.9282    1.0614    0.0000 C   0  0  0  0  0  0  0  0  0  0  0  0
   10.6603   -3.9386    0.0000 C   0  0  0  0  0  0  0  0  0  0  0  0
    8.0010    5.5381    0.0000 C   0  0  1  0  0  0  0  0  0  0  0  0
    7.1408    5.0281    0.0000 C   0  0  1  0  0  0  0  0  0  0  0  0
   12.3923    2.0614    0.0000 C   0  0  0  0  0  0  0  0  0  0  0  0
    8.8728    5.0482    0.0000 C   0  0  2  0  0  0  0  0  0  0  0  0
    7.1524    4.0282    0.0000 C   0  0  1  0  0  0  0  0  0  0  0  0
    8.8843    4.0482    0.0000 C   0  0  1  0  0  0  0  0  0  0  0  0
   11.5263    2.5614    0.0000 C   0  0  0  0  0  0  0  0  0  0  0  0
   13.2583    2.5614    0.0000 C   0  0  0  0  0  0  0  0  0  0  0  0
   11.5263    3.5614    0.0000 C   0  0  0  0  0  0  0  0  0  0  0  0
    6.2922    3.5182    0.0000 C   0  0  0  0  0  0  0  0  0  0  0  0
   10.6163    4.0682    0.0000 C   0  0  0  0  0  0  0  0  0  0  0  0
   12.3923    4.0614    0.0000 C   0  0  0  0  0  0  0  0  0  0  0  0
    7.1962    1.0614    0.0000 C   0  0  0  0  0  0  0  0  0  0  0  0
    9.7942   -5.4386    0.0000 C   0  0  0  0  0  0  0  0  0  0  0  0
   14.1244    2.0614    0.0000 C   0  0  0  0  0  0  0  0  0  0  0  0
   10.6082    5.1098    0.0000 C   0  0  0  0  0  0  0  0  0  0  0  0
   12.4084    5.1029    0.0000 C   0  0  0  0  0  0  0  0  0  0  0  0
   11.5103    5.6307    0.0000 C   0  0  0  0  0  0  0  0  0  0  0  0
    6.3301    0.5614    0.0000 C   0  0  0  0  0  0  0  0  0  0  0  0
   14.9904    2.5614    0.0000 C   0  0  0  0  0  0  0  0  0  0  0  0
   14.1244    1.0614    0.0000 C   0  0  0  0  0  0  0  0  0  0  0  0
    9.7942   -6.4386    0.0000 C   0  0  0  0  0  0  0  0  0  0  0  0
   15.8564    2.0614    0.0000 C   0  0  0  0  0  0  0  0  0  0  0  0
   14.9904    0.5614    0.0000 C   0  0  0  0  0  0  0  0  0  0  0  0
    5.4641    1.0614    0.0000 C   0  0  0  0  0  0  0  0  0  0  0  0
   15.8564    1.0614    0.0000 C   0  0  0  0  0  0  0  0  0  0  0  0
    8.9282   -6.9386    0.0000 C   0  0  0  0  0  0  0  0  0  0  0  0
    4.5981    0.5614    0.0000 C   0  0  0  0  0  0  0  0  0  0  0  0
    8.0622   -6.4386    0.0000 C   0  0  0  0  0  0  0  0  0  0  0  0
    3.7320    1.0614    0.0000 C   0  0  0  0  0  0  0  0  0  0  0  0
    4.5981   -0.4386    0.0000 C   0  0  0  0  0  0  0  0  0  0  0  0
    8.0622   -5.4386    0.0000 C   0  0  0  0  0  0  0  0  0  0  0  0
    7.1962   -6.9386    0.0000 C   0  0  0  0  0  0  0  0  0  0  0  0
    2.8660    0.5614    0.0000 C   0  0  0  0  0  0  0  0  0  0  0  0
    3.7320   -0.9386    0.0000 C   0  0  0  0  0  0  0  0  0  0  0  0
    7.1962   -4.9386    0.0000 C   0  0  0  0  0  0  0  0  0  0  0  0
    6.3301   -6.4386    0.0000 C   0  0  0  0  0  0  0  0  0  0  0  0
    2.8660   -0.4386    0.0000 C   0  0  0  0  0  0  0  0  0  0  0  0
    6.3301   -5.4386    0.0000 C   0  0  0  0  0  0  0  0  0  0  0  0
   11.5263   -1.0586    0.0000 H   0  0  0  0  0  0  0  0  0  0  0  0
   10.1233   -1.2486    0.0000 H   0  0  0  0  0  0  0  0  0  0  0  0
    9.2573   -0.1286    0.0000 H   0  0  0  0  0  0  0  0  0  0  0  0
   12.9292   -1.6286    0.0000 H   0  0  0  0  0  0  0  0  0  0  0  0
   13.7953   -2.7486    0.0000 H   0  0  0  0  0  0  0  0  0  0  0  0
   11.5263    1.1814    0.0000 H   0  0  0  0  0  0  0  0  0  0  0  0
    9.7942    1.1814    0.0000 H   0  0  0  0  0  0  0  0  0  0  0  0
   13.2583   -4.0586    0.0000 H   0  0  0  0  0  0  0  0  0  0  0  0
   12.9292   -4.2486    0.0000 H   0  0  0  0  0  0  0  0  0  0  0  0
   10.9893   -3.1286    0.0000 H   0  0  0  0  0  0  0  0  0  0  0  0
    9.3267    1.5364    0.0000 H   0  0  0  0  0  0  0  0  0  0  0  0
    8.5297    1.5364    0.0000 H   0  0  0  0  0  0  0  0  0  0  0  0
   10.4482   -3.3560    0.0000 H   0  0  0  0  0  0  0  0  0  0  0  0
   10.0497   -4.0462    0.0000 H   0  0  0  0  0  0  0  0  0  0  0  0
   10.1233   -2.2486    0.0000 H   0  0  0  0  0  0  0  0  0  0  0  0
    8.9282   -1.5586    0.0000 H   0  0  0  0  0  0  0  0  0  0  0  0
   14.6613   -2.2486    0.0000 H   0  0  0  0  0  0  0  0  0  0  0  0
   14.6613   -3.6286    0.0000 H   0  0  0  0  0  0  0  0  0  0  0  0
   12.9292   -5.2486    0.0000 H   0  0  0  0  0  0  0  0  0  0  0  0
    7.4606    5.8419    0.0000 H   0  0  0  0  0  0  0  0  0  0  0  0
    6.6075    4.7119    0.0000 H   0  0  0  0  0  0  0  0  0  0  0  0
    8.8656    5.6681    0.0000 H   0  0  0  0  0  0  0  0  0  0  0  0
    7.1596    3.4082    0.0000 H   0  0  0  0  0  0  0  0  0  0  0  0
    9.4177    4.3644    0.0000 H   0  0  0  0  0  0  0  0  0  0  0  0
   10.9893    2.2514    0.0000 H   0  0  0  0  0  0  0  0  0  0  0  0
    5.8992    3.0387    0.0000 H   0  0  0  0  0  0  0  0  0  0  0  0
    6.6962    3.0479    0.0000 H   0  0  0  0  0  0  0  0  0  0  0  0
    7.4490    6.8418    0.0000 H   0  0  0  0  0  0  0  0  0  0  0  0
    6.2619    6.1380    0.0000 H   0  0  0  0  0  0  0  0  0  0  0  0
    9.7258    6.1781    0.0000 H   0  0  0  0  0  0  0  0  0  0  0  0
   10.0701    5.4178    0.0000 H   0  0  0  0  0  0  0  0  0  0  0  0
   12.9488    5.4067    0.0000 H   0  0  0  0  0  0  0  0  0  0  0  0
    4.8872    3.6920    0.0000 H   0  0  0  0  0  0  0  0  0  0  0  0
    6.3301   -0.0586    0.0000 H   0  0  0  0  0  0  0  0  0  0  0  0
   14.9904    3.1814    0.0000 H   0  0  0  0  0  0  0  0  0  0  0  0
   13.5874    0.7514    0.0000 H   0  0  0  0  0  0  0  0  0  0  0  0
   10.3312   -6.7486    0.0000 H   0  0  0  0  0  0  0  0  0  0  0  0
   14.9904   -0.0586    0.0000 H   0  0  0  0  0  0  0  0  0  0  0  0
    5.4641    1.6814    0.0000 H   0  0  0  0  0  0  0  0  0  0  0  0
    8.9282   -7.5586    0.0000 H   0  0  0  0  0  0  0  0  0  0  0  0
   12.0523    6.9386    0.0000 H   0  0  0  0  0  0  0  0  0  0  0  0
   16.7224    3.1814    0.0000 H   0  0  0  0  0  0  0  0  0  0  0  0
   16.7224   -0.0586    0.0000 H   0  0  0  0  0  0  0  0  0  0  0  0
    3.7320    1.6814    0.0000 H   0  0  0  0  0  0  0  0  0  0  0  0
    5.1350   -0.7486    0.0000 H   0  0  0  0  0  0  0  0  0  0  0  0
    8.5991   -5.1286    0.0000 H   0  0  0  0  0  0  0  0  0  0  0  0
    7.1962   -7.5586    0.0000 H   0  0  0  0  0  0  0  0  0  0  0  0
    3.7320   -1.5586    0.0000 H   0  0  0  0  0  0  0  0  0  0  0  0
    5.7932   -6.7486    0.0000 H   0  0  0  0  0  0  0  0  0  0  0  0
    2.0000    1.6814    0.0000 H   0  0  0  0  0  0  0  0  0  0  0  0
    6.6592   -3.6286    0.0000 H   0  0  0  0  0  0  0  0  0  0  0  0
    2.0000   -1.5586    0.0000 H   0  0  0  0  0  0  0  0  0  0  0  0
    4.9272   -5.2486    0.0000 H   0  0  0  0  0  0  0  0  0  0  0  0
  2 33  1  0  0  0  0
  2 34  1  0  0  0  0
  3 31  1  0  0  0  0
  3 37  1  0  0  0  0
  4 42  1  0  0  0  0
  5 93  1  0  0  0  0
  6 94  1  0  0  0  0
  7 95  1  0  0  0  0
  8 96  1  0  0  0  0
  9 97  1  0  0  0  0
 10 38  1  0  0  0  0
 10 52  1  0  0  0  0
 11 39  1  0  0  0  0
 11 53  1  0  0  0  0
 12 44  1  0  0  0  0
 12 45  1  0  0  0  0
 13 50  1  0  0  0  0
 14106  1  0  0  0  0
 15107  1  0  0  0  0
 16108  1  0  0  0  0
 17 47  1  0  0  0  0
 17 51  2  0  0  0  0
 18 49  1  0  0  0  0
 18111  1  0  0  0  0
 19 52  2  0  0  0  0
 20 53  2  0  0  0  0
 21 57  1  0  0  0  0
 21119  1  0  0  0  0
 22 62  1  0  0  0  0
 22120  1  0  0  0  0
 23 65  1  0  0  0  0
 23121  1  0  0  0  0
 24 73  1  0  0  0  0
 24128  1  0  0  0  0
 25 75  1  0  0  0  0
 25129  1  0  0  0  0
 26 77  1  0  0  0  0
 26130  1  0  0  0  0
 27 78  1  0  0  0  0
 27131  1  0  0  0  0
 28  1  1  0  0  0  0
 28 29  1  0  0  0  0
 28 33  1  0  0  0  0
 28 79  1  1  0  0  0
 29  5  1  0  0  0  0
 29 30  1  0  0  0  0
 29 80  1  6  0  0  0
 30  6  1  0  0  0  0
 30 34  1  0  0  0  0
 30 81  1  1  0  0  0
 31  1  1  0  0  0  0
 31 32  1  0  0  0  0
 31 82  1  6  0  0  0
 32  7  1  0  0  0  0
 32 35  1  0  0  0  0
 32 83  1  1  0  0  0
 33  4  1  0  0  0  0
 33 84  1  6  0  0  0
 34 38  1  0  0  0  0
 34 85  1  6  0  0  0
 35  8  1  0  0  0  0
 35 36  1  0  0  0  0
 35 86  1  6  0  0  0
 36  9  1  0  0  0  0
 36 37  1  0  0  0  0
 36 87  1  1  0  0  0
 37 39  1  0  0  0  0
 37 88  1  6  0  0  0
 38 89  1  0  0  0  0
 38 90  1  0  0  0  0
 39 91  1  0  0  0  0
 39 92  1  0  0  0  0
 40 14  1  0  0  0  0
 40 41  1  0  0  0  0
 40 43  1  0  0  0  0
 40 98  1  1  0  0  0
 41 15  1  0  0  0  0
 41 44  1  0  0  0  0
 41 99  1  6  0  0  0
 42 46  1  0  0  0  0
 42 47  2  0  0  0  0
 43 16  1  0  0  0  0
 43 45  1  0  0  0  0
 43100  1  6  0  0  0
 44 49  1  0  0  0  0
 44101  1  1  0  0  0
 45 13  1  0  0  0  0
 45102  1  1  0  0  0
 46 48  2  0  0  0  0
 46103  1  0  0  0  0
 47 54  1  0  0  0  0
 48 50  1  0  0  0  0
 48 51  1  0  0  0  0
 49104  1  0  0  0  0
 49105  1  0  0  0  0
 50 55  2  0  0  0  0
 51 56  1  0  0  0  0
 52 58  1  0  0  0  0
 53 61  1  0  0  0  0
 54 59  2  0  0  0  0
 54 60  1  0  0  0  0
 55 57  1  0  0  0  0
 55109  1  0  0  0  0
 56 57  2  0  0  0  0
 56110  1  0  0  0  0
 58 64  2  3  0  0  0
 58112  1  0  0  0  0
 59 62  1  0  0  0  0
 59113  1  0  0  0  0
 60 63  2  0  0  0  0
 60114  1  0  0  0  0
 61 66  2  3  0  0  0
 61115  1  0  0  0  0
 62 65  2  0  0  0  0
 63 65  1  0  0  0  0
 63116  1  0  0  0  0
 64 67  1  0  0  0  0
 64117  1  0  0  0  0
 66 68  1  0  0  0  0
 66118  1  0  0  0  0
 67 69  2  0  0  0  0
 67 70  1  0  0  0  0
 68 71  2  0  0  0  0
 68 72  1  0  0  0  0
 69 73  1  0  0  0  0
 69122  1  0  0  0  0
 70 74  2  0  0  0  0
 70123  1  0  0  0  0
 71 75  1  0  0  0  0
 71124  1  0  0  0  0
 72 76  2  0  0  0  0
 72125  1  0  0  0  0
 73 77  2  0  0  0  0
 74 77  1  0  0  0  0
 74126  1  0  0  0  0
 75 78  2  0  0  0  0
 76 78  1  0  0  0  0
 76127  1  0  0  0  0
M  CHG  1  17   1
M  END
>  <PUBCHEM_COMPOUND_CID>
100930184

>  <PUBCHEM_COMPOUND_CANONICALIZED>
1

>  <PUBCHEM_CACTVS_COMPLEXITY>
1980

>  <PUBCHEM_CACTVS_HBOND_ACCEPTOR>
26

>  <PUBCHEM_CACTVS_HBOND_DONOR>
16

>  <PUBCHEM_CACTVS_ROTATABLE_BOND>
18

>  <PUBCHEM_CACTVS_SUBSKEYS>
AAADcfB8PgAAAAAAAAAAAAAAAAAAAAAAAAA0aNGiAAAAAACR9AAAGgAACAAADBSwmAMwDsAABkCIAqDSCAICCAAkIAAIiAFGiMgdNzaGNR6ieWOl4BUPuYfK7PzOIAABCAAIQABAAAIQABCAAAAAAAAAAA==

>  <PUBCHEM_IUPAC_OPENEYE_NAME>
[(2R,3S,4S,5R,6S)-6-[(2S,3R,4S,5S,6R)-2-[2-(3,4-dihydroxyphenyl)-7-hydroxy-5-[(2S,3R,4S,5S,6R)-3,4,5-trihydroxy-6-(hydroxymethyl)tetrahydropyran-2-yl]oxy-chromenylium-3-yl]oxy-6-[3-(3,4-dihydroxyphenyl)prop-2-enoyloxymethyl]-4,5-dihydroxy-tetrahydropyran-3-yl]oxy-3,4,5-trihydroxy-tetrahydropyran-2-yl]methyl 3-(3,4-dihydroxyphenyl)prop-2-enoate

>  <PUBCHEM_IUPAC_CAS_NAME>
3-(3,4-dihydroxyphenyl)-2-propenoic acid [(2R,3S,4S,5R,6S)-6-[[(2S,3R,4S,5S,6R)-2-[[2-(3,4-dihydroxyphenyl)-7-hydroxy-5-[[(2S,3R,4S,5S,6R)-3,4,5-trihydroxy-6-(hydroxymethyl)-2-oxanyl]oxy]-1-benzopyrylium-3-yl]oxy]-6-[[3-(3,4-dihydroxyphenyl)-1-oxoprop-2-enoxy]methyl]-4,5-dihydroxy-3-oxanyl]oxy]-3,4,5-trihydroxy-2-oxanyl]methyl ester

>  <PUBCHEM_IUPAC_NAME_MARKUP>
[(2<I>R</I>,3<I>S</I>,4<I>S</I>,5<I>R</I>,6<I>S</I>)-6-[(2<I>S</I>,3<I>R</I>,4<I>S</I>,5<I>S</I>,6<I>R</I>)-2-[2-(3,4-dihydroxyphenyl)-7-hydroxy-5-[(2<I>S</I>,3<I>R</I>,4<I>S</I>,5<I>S</I>,6<I>R</I>)-3,4,5-trihydroxy-6-(hydroxymethyl)oxan-2-yl]oxychromenylium-3-yl]oxy-6-[3-(3,4-dihydroxyphenyl)prop-2-enoyloxymethyl]-4,5-dihydroxyoxan-3-yl]oxy-3,4,5-trihydroxyoxan-2-yl]methyl 3-(3,4-dihydroxyphenyl)prop-2-enoate

>  <PUBCHEM_IUPAC_NAME>
[(2R,3S,4S,5R,6S)-6-[(2S,3R,4S,5S,6R)-2-[2-(3,4-dihydroxyphenyl)-7-hydroxy-5-[(2S,3R,4S,5S,6R)-3,4,5-trihydroxy-6-(hydroxymethyl)oxan-2-yl]oxychromenylium-3-yl]oxy-6-[3-(3,4-dihydroxyphenyl)prop-2-enoyloxymethyl]-4,5-dihydroxyoxan-3-yl]oxy-3,4,5-trihydroxyoxan-2-yl]methyl 3-(3,4-dihydroxyphenyl)prop-2-enoate

>  <PUBCHEM_IUPAC_SYSTEMATIC_NAME>
[(2R,3S,4S,5R,6S)-6-[(2S,3R,4S,5S,6R)-2-[2-[3,4-bis(oxidanyl)phenyl]-5-[(2S,3R,4S,5S,6R)-6-(hydroxymethyl)-3,4,5-tris(oxidanyl)oxan-2-yl]oxy-7-oxidanyl-chromenylium-3-yl]oxy-6-[3-[3,4-bis(oxidanyl)phenyl]prop-2-enoyloxymethyl]-4,5-bis(oxidanyl)oxan-3-yl]oxy-3,4,5-tris(oxidanyl)oxan-2-yl]methyl 3-[3,4-bis(oxidanyl)phenyl]prop-2-enoate

>  <PUBCHEM_IUPAC_TRADITIONAL_NAME>
3-(3,4-dihydroxyphenyl)acrylic acid [(2R,3S,4S,5R,6S)-6-[(2S,3R,4S,5S,6R)-6-(caffeoyloxymethyl)-2-[[2-(3,4-dihydroxyphenyl)-7-hydroxy-5-[(2S,3R,4S,5S,6R)-3,4,5-trihydroxy-6-methylol-tetrahydropyran-2-yl]oxy-1-benzopyrylium-3-yl]oxy]-4,5-dihydroxy-tetrahydropyran-3-yl]oxy-3,4,5-trihydroxy-tetrahydropyran-2-yl]methyl ester

>  <PUBCHEM_IUPAC_INCHI>
InChI=1S/C51H52O27/c52-17-34-39(62)42(65)45(68)49(75-34)73-32-15-23(53)14-31-24(32)16-33(47(72-31)22-5-8-27(56)30(59)13-22)74-51-48(44(67)41(64)36(77-51)19-71-38(61)10-4-21-2-7-26(55)29(58)12-21)78-50-46(69)43(66)40(63)35(76-50)18-70-37(60)9-3-20-1-6-25(54)28(57)11-20/h1-16,34-36,39-46,48-52,62-69H,17-19H2,(H6-,53,54,55,56,57,58,59,60,61)/p+1/t34-,35-,36-,39-,40-,41-,42+,43+,44+,45-,46-,48-,49-,50+,51-/m1/s1

>  <PUBCHEM_IUPAC_INCHIKEY>
QROHSXUMSFREKB-RPCOPJSUSA-O

>  <PUBCHEM_EXACT_MASS>
1097.27742141

>  <PUBCHEM_MOLECULAR_FORMULA>
C51H53O27+

>  <PUBCHEM_MOLECULAR_WEIGHT>
1097.9

>  <PUBCHEM_SMILES>
C1=CC(=C(C=C1C=CC(=O)OC[C@@H]2[C@H]([C@@H]([C@H]([C@@H](O2)O[C@@H]3[C@H]([C@@H]([C@H](O[C@H]3OC4=C([O+]=C5C=C(C=C(C5=C4)O[C@H]6[C@@H]([C@H]([C@@H]([C@H](O6)CO)O)O)O)O)C7=CC(=C(C=C7)O)O)COC(=O)C=CC8=CC(=C(C=C8)O)O)O)O)O)O)O)O)O

>  <PUBCHEM_OPENEYE_CAN_SMILES>
C1=CC(=C(C=C1C=CC(=O)OCC2C(C(C(C(O2)OC3C(C(C(OC3OC4=C([O+]=C5C=C(C=C(C5=C4)OC6C(C(C(C(O6)CO)O)O)O)O)C7=CC(=C(C=C7)O)O)COC(=O)C=CC8=CC(=C(C=C8)O)O)O)O)O)O)O)O)O

>  <PUBCHEM_OPENEYE_ISO_SMILES>
C1=CC(=C(C=C1C=CC(=O)OC[C@@H]2[C@H]([C@@H]([C@H]([C@@H](O2)O[C@@H]3[C@H]([C@@H]([C@H](O[C@H]3OC4=C([O+]=C5C=C(C=C(C5=C4)O[C@H]6[C@@H]([C@H]([C@@H]([C@H](O6)CO)O)O)O)O)C7=CC(=C(C=C7)O)O)COC(=O)C=CC8=CC(=C(C=C8)O)O)O)O)O)O)O)O)O

>  <PUBCHEM_CACTVS_TPSA>
433

>  <PUBCHEM_MONOISOTOPIC_WEIGHT>
1097.27742141

>  <PUBCHEM_TOTAL_CHARGE>
1

>  <PUBCHEM_HEAVY_ATOM_COUNT>
78

>  <PUBCHEM_ATOM_DEF_STEREO_COUNT>
15

>  <PUBCHEM_ATOM_UDEF_STEREO_COUNT>
0

>  <PUBCHEM_BOND_DEF_STEREO_COUNT>
0

>  <PUBCHEM_BOND_UDEF_STEREO_COUNT>
2

>  <PUBCHEM_ISOTOPIC_ATOM_COUNT>
0

>  <PUBCHEM_COMPONENT_COUNT>
1

>  <PUBCHEM_CACTVS_TAUTO_COUNT>
-1

>  <PUBCHEM_COORDINATE_TYPE>
1
5
255

>  <PUBCHEM_BONDANNOTATIONS>
28  1  6
31  1  5
45  13  6
40  14  6
41  15  5
43  16  5
17  47  8
17  51  8
34  38  5
37  39  5
33  4  5
42  46  8
42  47  8
44  49  6
46  48  8
48  50  8
48  51  8
29  5  5
50  55  8
51  56  8
54  59  8
54  60  8
55  57  8
56  57  8
58  64  1
59  62  8
30  6  6
60  63  8
61  66  1
62  65  8
63  65  8
67  69  8
67  70  8
68  71  8
68  72  8
69  73  8
32  7  6
70  74  8
71  75  8
72  76  8
73  77  8
74  77  8
75  78  8
76  78  8
35  8  5
36  9  6

$$$$
