101844422
 OpenBabel06082519392D

 74 78  0  0  1  0  0  0  0  0999 V2000
   11.1972   -1.1296    0.0000 O   0  0  0  0  0  0  0  0  0  0  0  0
   12.9292   -1.1296    0.0000 O   0  0  0  0  0  0  0  0  0  0  0  0
    9.4651   -3.1296    0.0000 O   0  0  0  0  0  0  0  0  0  0  0  0
   11.1972   -4.1296    0.0000 O   0  0  0  0  0  0  0  0  0  0  0  0
   12.9292   -3.1296    0.0000 O   0  0  0  0  0  0  0  0  0  0  0  0
    8.5991   -1.6296    0.0000 O   0  0  0  0  0  0  0  0  0  0  0  0
   13.7953    1.3704    0.0000 O   0  0  0  0  0  0  0  0  0  0  0  0
    7.7331   -0.1296    0.0000 O   0  3  0  0  0  0  0  0  0  0  0  0
   10.2930    1.3672    0.0000 O   0  0  0  0  0  0  0  0  0  0  0  0
   15.5273   -2.6296    0.0000 O   0  0  0  0  0  0  0  0  0  0  0  0
   12.0511    4.4396    0.0000 O   0  0  0  0  0  0  0  0  0  0  0  0
   17.2594   -1.6296    0.0000 O   0  0  0  0  0  0  0  0  0  0  0  0
    4.2690   -4.1296    0.0000 O   0  0  0  0  0  0  0  0  0  0  0  0
    2.5369   -3.1296    0.0000 O   0  0  0  0  0  0  0  0  0  0  0  0
   10.3312   -2.6296    0.0000 C   0  0  1  0  0  0  0  0  0  0  0  0
   11.1972   -3.1296    0.0000 C   0  0  1  0  0  0  0  0  0  0  0  0
   10.3312   -1.6296    0.0000 C   0  0  1  0  0  0  0  0  0  0  0  0
   12.0632   -2.6296    0.0000 C   0  0  2  0  0  0  0  0  0  0  0  0
   12.0632   -1.6296    0.0000 C   0  0  1  0  0  0  0  0  0  0  0  0
    9.4651   -1.1296    0.0000 C   0  0  0  0  0  0  0  0  0  0  0  0
   12.9292   -0.1296    0.0000 C   0  0  0  0  0  0  0  0  0  0  0  0
   13.7953    0.3704    0.0000 C   0  0  0  0  0  0  0  0  0  0  0  0
   12.0632    0.3704    0.0000 C   0  0  0  0  0  0  0  0  0  0  0  0
    7.7331   -1.1296    0.0000 C   0  0  0  0  0  0  0  0  0  0  0  0
   12.0632    1.3704    0.0000 C   0  0  0  0  0  0  0  0  0  0  0  0
   14.6613   -0.1296    0.0000 C   0  0  0  0  0  0  0  0  0  0  0  0
   12.9292    1.8704    0.0000 C   0  0  0  0  0  0  0  0  0  0  0  0
   11.1532    1.8772    0.0000 C   0  0  0  0  0  0  0  0  0  0  0  0
    6.8671   -1.6296    0.0000 C   0  0  0  0  0  0  0  0  0  0  0  0
   12.9453    2.9119    0.0000 C   0  0  0  0  0  0  0  0  0  0  0  0
   14.6613   -1.1296    0.0000 C   0  0  0  0  0  0  0  0  0  0  0  0
   15.5273    0.3704    0.0000 C   0  0  0  0  0  0  0  0  0  0  0  0
   11.1452    2.9188    0.0000 C   0  0  0  0  0  0  0  0  0  0  0  0
   12.0473    3.4396    0.0000 C   0  0  0  0  0  0  0  0  0  0  0  0
   15.5273   -1.6296    0.0000 C   0  0  0  0  0  0  0  0  0  0  0  0
   16.3933   -0.1296    0.0000 C   0  0  0  0  0  0  0  0  0  0  0  0
   16.3933   -1.1296    0.0000 C   0  0  0  0  0  0  0  0  0  0  0  0
    6.0010   -1.1296    0.0000 C   0  0  0  0  0  0  0  0  0  0  0  0
    5.1350   -1.6296    0.0000 C   0  0  0  0  0  0  0  0  0  0  0  0
    5.1350   -2.6296    0.0000 C   0  0  0  0  0  0  0  0  0  0  0  0
    4.2690   -1.1296    0.0000 C   0  0  0  0  0  0  0  0  0  0  0  0
   16.3933   -3.1296    0.0000 C   0  0  0  0  0  0  0  0  0  0  0  0
    4.2690   -3.1296    0.0000 C   0  0  0  0  0  0  0  0  0  0  0  0
    3.4030   -1.6296    0.0000 C   0  0  0  0  0  0  0  0  0  0  0  0
    3.4030   -2.6296    0.0000 C   0  0  0  0  0  0  0  0  0  0  0  0
    9.7942   -2.3196    0.0000 H   0  0  0  0  0  0  0  0  0  0  0  0
   10.6603   -3.4396    0.0000 H   0  0  0  0  0  0  0  0  0  0  0  0
   10.3312   -1.0096    0.0000 H   0  0  0  0  0  0  0  0  0  0  0  0
   12.0632   -3.2496    0.0000 H   0  0  0  0  0  0  0  0  0  0  0  0
   12.0632   -1.0096    0.0000 H   0  0  0  0  0  0  0  0  0  0  0  0
    9.8637   -0.6547    0.0000 H   0  0  0  0  0  0  0  0  0  0  0  0
    9.0666   -0.6547    0.0000 H   0  0  0  0  0  0  0  0  0  0  0  0
    9.4651   -3.7496    0.0000 H   0  0  0  0  0  0  0  0  0  0  0  0
   10.6603   -4.4396    0.0000 H   0  0  0  0  0  0  0  0  0  0  0  0
   12.9292   -3.7496    0.0000 H   0  0  0  0  0  0  0  0  0  0  0  0
   11.5263    0.0604    0.0000 H   0  0  0  0  0  0  0  0  0  0  0  0
    6.8671   -2.2496    0.0000 H   0  0  0  0  0  0  0  0  0  0  0  0
   13.4858    3.2156    0.0000 H   0  0  0  0  0  0  0  0  0  0  0  0
   14.1244   -1.4396    0.0000 H   0  0  0  0  0  0  0  0  0  0  0  0
   15.5273    0.9904    0.0000 H   0  0  0  0  0  0  0  0  0  0  0  0
   10.6071    3.2268    0.0000 H   0  0  0  0  0  0  0  0  0  0  0  0
    7.1962    0.1804    0.0000 H   0  0  0  0  0  0  0  0  0  0  0  0
   16.9303    0.1804    0.0000 H   0  0  0  0  0  0  0  0  0  0  0  0
    6.0010   -0.5096    0.0000 H   0  0  0  0  0  0  0  0  0  0  0  0
    9.7525    1.6710    0.0000 H   0  0  0  0  0  0  0  0  0  0  0  0
   17.7963   -1.3196    0.0000 H   0  0  0  0  0  0  0  0  0  0  0  0
    5.6720   -2.9396    0.0000 H   0  0  0  0  0  0  0  0  0  0  0  0
    4.2690   -0.5096    0.0000 H   0  0  0  0  0  0  0  0  0  0  0  0
   16.0833   -3.6666    0.0000 H   0  0  0  0  0  0  0  0  0  0  0  0
   16.9303   -3.4396    0.0000 H   0  0  0  0  0  0  0  0  0  0  0  0
   16.7033   -2.5927    0.0000 H   0  0  0  0  0  0  0  0  0  0  0  0
    2.8660   -1.3196    0.0000 H   0  0  0  0  0  0  0  0  0  0  0  0
    3.7320   -4.4396    0.0000 H   0  0  0  0  0  0  0  0  0  0  0  0
    2.0000   -2.8196    0.0000 H   0  0  0  0  0  0  0  0  0  0  0  0
  1 17  1  0  0  0  0
  1 19  1  0  0  0  0
  2 21  1  0  0  0  0
  3 53  1  0  0  0  0
  4 54  1  0  0  0  0
  5 55  1  0  0  0  0
  6 20  1  0  0  0  0
  6 24  1  0  0  0  0
  7 22  1  0  0  0  0
  7 27  1  0  0  0  0
  8 24  2  0  0  0  0
  8 62  1  0  0  0  0
  9 28  1  0  0  0  0
  9 65  1  0  0  0  0
 10 35  1  0  0  0  0
 10 42  1  0  0  0  0
 11 34  2  0  0  0  0
 12 37  1  0  0  0  0
 12 66  1  0  0  0  0
 13 43  1  0  0  0  0
 13 73  1  0  0  0  0
 14 45  1  0  0  0  0
 14 74  1  0  0  0  0
 15  3  1  0  0  0  0
 15 16  1  0  0  0  0
 15 17  1  0  0  0  0
 15 46  1  1  0  0  0
 16  4  1  0  0  0  0
 16 18  1  0  0  0  0
 16 47  1  6  0  0  0
 17 20  1  0  0  0  0
 17 48  1  6  0  0  0
 18  5  1  0  0  0  0
 18 19  1  0  0  0  0
 18 49  1  1  0  0  0
 19  2  1  0  0  0  0
 19 50  1  6  0  0  0
 20 51  1  0  0  0  0
 20 52  1  0  0  0  0
 21 22  2  0  0  0  0
 21 23  1  0  0  0  0
 22 26  1  0  0  0  0
 23 25  2  0  0  0  0
 23 56  1  0  0  0  0
 24 29  1  0  0  0  0
 25 27  1  0  0  0  0
 25 28  1  0  0  0  0
 26 31  2  0  0  0  0
 26 32  1  0  0  0  0
 27 30  2  0  0  0  0
 28 33  2  0  0  0  0
 29 38  2  3  0  0  0
 29 57  1  0  0  0  0
 30 34  1  0  0  0  0
 30 58  1  0  0  0  0
 31 35  1  0  0  0  0
 31 59  1  0  0  0  0
 32 36  2  0  0  0  0
 32 60  1  0  0  0  0
 33 34  1  0  0  0  0
 33 61  1  0  0  0  0
 35 37  2  0  0  0  0
 36 37  1  0  0  0  0
 36 63  1  0  0  0  0
 38 39  1  0  0  0  0
 38 64  1  0  0  0  0
 39 40  2  0  0  0  0
 39 41  1  0  0  0  0
 40 43  1  0  0  0  0
 40 67  1  0  0  0  0
 41 44  2  0  0  0  0
 41 68  1  0  0  0  0
 42 69  1  0  0  0  0
 42 70  1  0  0  0  0
 42 71  1  0  0  0  0
 43 45  2  0  0  0  0
 44 45  1  0  0  0  0
 44 72  1  0  0  0  0
M  CHG  1   8   1
M  END
>  <PUBCHEM_COMPOUND_CID>
101844422

>  <PUBCHEM_COMPOUND_CANONICALIZED>
1

>  <PUBCHEM_CACTVS_COMPLEXITY>
1280

>  <PUBCHEM_CACTVS_HBOND_ACCEPTOR>
13

>  <PUBCHEM_CACTVS_HBOND_DONOR>
8

>  <PUBCHEM_CACTVS_ROTATABLE_BOND>
9

>  <PUBCHEM_CACTVS_SUBSKEYS>
AAADceB4PAAAAAAAAAAAAAAAAAAAAAAAAAA0YIECAAAAAACBQAAAGgAACAAADBSwmAMyDoAABgCIAqDSCAACCAAgIAAIiAAGiMgdNiKGMRqicCMlwBEPuYfA4DwOIAABAAAAQABAAAIAAACAAAAAAAAAAA==

>  <PUBCHEM_IUPAC_OPENEYE_NAME>
[3-(3,4-dihydroxyphenyl)-1-[[(2R,3S,4S,5R,6S)-3,4,5-trihydroxy-6-[5-hydroxy-2-(4-hydroxy-3-methoxy-phenyl)-7-oxo-chromen-3-yl]oxy-tetrahydropyran-2-yl]methoxy]prop-2-enylidene]oxonium

>  <PUBCHEM_IUPAC_CAS_NAME>
[3-(3,4-dihydroxyphenyl)-1-[[(2R,3S,4S,5R,6S)-3,4,5-trihydroxy-6-[[5-hydroxy-2-(4-hydroxy-3-methoxyphenyl)-7-oxo-1-benzopyran-3-yl]oxy]-2-oxanyl]methoxy]prop-2-enylidene]oxonium

>  <PUBCHEM_IUPAC_NAME_MARKUP>
[3-(3,4-dihydroxyphenyl)-1-[[(2<I>R</I>,3<I>S</I>,4<I>S</I>,5<I>R</I>,6<I>S</I>)-3,4,5-trihydroxy-6-[5-hydroxy-2-(4-hydroxy-3-methoxyphenyl)-7-oxochromen-3-yl]oxyoxan-2-yl]methoxy]prop-2-enylidene]oxidanium

>  <PUBCHEM_IUPAC_NAME>
[3-(3,4-dihydroxyphenyl)-1-[[(2R,3S,4S,5R,6S)-3,4,5-trihydroxy-6-[5-hydroxy-2-(4-hydroxy-3-methoxyphenyl)-7-oxochromen-3-yl]oxyoxan-2-yl]methoxy]prop-2-enylidene]oxidanium

>  <PUBCHEM_IUPAC_SYSTEMATIC_NAME>
[3-[3,4-bis(oxidanyl)phenyl]-1-[[(2R,3S,4S,5R,6S)-6-[2-(3-methoxy-4-oxidanyl-phenyl)-5-oxidanyl-7-oxidanylidene-chromen-3-yl]oxy-3,4,5-tris(oxidanyl)oxan-2-yl]methoxy]prop-2-enylidene]oxidanium

>  <PUBCHEM_IUPAC_TRADITIONAL_NAME>
[3-(3,4-dihydroxyphenyl)-1-[[(2R,3S,4S,5R,6S)-3,4,5-trihydroxy-6-[5-hydroxy-2-(4-hydroxy-3-methoxy-phenyl)-7-keto-chromen-3-yl]oxy-tetrahydropyran-2-yl]methoxy]prop-2-enylidene]oxonium

>  <PUBCHEM_IUPAC_INCHI>
InChI=1S/C31H28O14/c1-41-23-9-15(4-6-19(23)34)30-24(12-17-20(35)10-16(32)11-22(17)43-30)44-31-29(40)28(39)27(38)25(45-31)13-42-26(37)7-3-14-2-5-18(33)21(36)8-14/h2-12,25,27-29,31,33-36,38-40H,13H2,1H3/p+1/t25-,27-,28+,29-,31-/m1/s1

>  <PUBCHEM_IUPAC_INCHIKEY>
HDTLXKDEVOSJOW-GVFKUQRYSA-O

>  <PUBCHEM_XLOGP3_AA>
0.5

>  <PUBCHEM_EXACT_MASS>
625.15573059

>  <PUBCHEM_MOLECULAR_FORMULA>
C31H29O14+

>  <PUBCHEM_MOLECULAR_WEIGHT>
625.6

>  <PUBCHEM_SMILES>
COC1=C(C=CC(=C1)C2=C(C=C3C(=CC(=O)C=C3O2)O)O[C@H]4[C@@H]([C@H]([C@@H]([C@H](O4)COC(=[OH+])C=CC5=CC(=C(C=C5)O)O)O)O)O)O

>  <PUBCHEM_OPENEYE_CAN_SMILES>
COC1=C(C=CC(=C1)C2=C(C=C3C(=CC(=O)C=C3O2)O)OC4C(C(C(C(O4)COC(=[OH+])C=CC5=CC(=C(C=C5)O)O)O)O)O)O

>  <PUBCHEM_OPENEYE_ISO_SMILES>
COC1=C(C=CC(=C1)C2=C(C=C3C(=CC(=O)C=C3O2)O)O[C@H]4[C@@H]([C@H]([C@@H]([C@H](O4)COC(=[OH+])C=CC5=CC(=C(C=C5)O)O)O)O)O)O

>  <PUBCHEM_CACTVS_TPSA>
206

>  <PUBCHEM_MONOISOTOPIC_WEIGHT>
625.15573059

>  <PUBCHEM_TOTAL_CHARGE>
1

>  <PUBCHEM_HEAVY_ATOM_COUNT>
45

>  <PUBCHEM_ATOM_DEF_STEREO_COUNT>
5

>  <PUBCHEM_ATOM_UDEF_STEREO_COUNT>
0

>  <PUBCHEM_BOND_DEF_STEREO_COUNT>
0

>  <PUBCHEM_BOND_UDEF_STEREO_COUNT>
1

>  <PUBCHEM_ISOTOPIC_ATOM_COUNT>
0

>  <PUBCHEM_COMPONENT_COUNT>
1

>  <PUBCHEM_CACTVS_TAUTO_COUNT>
-1

>  <PUBCHEM_COORDINATE_TYPE>
1
5
255

>  <PUBCHEM_BONDANNOTATIONS>
17  20  5
19  2  5
21  22  8
21  23  8
23  25  8
25  28  8
26  31  8
26  32  8
27  30  8
28  33  8
29  38  1
15  3  6
30  34  8
31  35  8
32  36  8
33  34  8
35  37  8
36  37  8
39  40  8
39  41  8
16  4  5
40  43  8
41  44  8
43  45  8
44  45  8
18  5  6
7  22  8
7  27  8

$$$$
