10256668
 OpenBabel06082519392D

 96 97  0  0  0  0  0  0  0  0999 V2000
    3.0000   -4.5000    0.0000 C   0  0  0  0  0  0  0  0  0  0  0  0
   15.1244    3.5000    0.0000 C   0  0  0  0  0  0  0  0  0  0  0  0
    3.0000   -5.5000    0.0000 C   0  0  0  0  0  0  0  0  0  0  0  0
   15.9904    3.0000    0.0000 C   0  0  0  0  0  0  0  0  0  0  0  0
    3.8660   -6.0000    0.0000 C   0  0  0  0  0  0  0  0  0  0  0  0
   16.8564    3.5000    0.0000 C   0  0  0  0  0  0  0  0  0  0  0  0
    3.8660   -4.0000    0.0000 C   0  0  0  0  0  0  0  0  0  0  0  0
   15.1244    4.5000    0.0000 C   0  0  0  0  0  0  0  0  0  0  0  0
    4.7321   -5.5000    0.0000 C   0  0  0  0  0  0  0  0  0  0  0  0
   16.8564    4.5000    0.0000 C   0  0  0  0  0  0  0  0  0  0  0  0
    4.7321   -4.5000    0.0000 C   0  0  0  0  0  0  0  0  0  0  0  0
   15.9904    5.0000    0.0000 C   0  0  0  0  0  0  0  0  0  0  0  0
    2.0000   -4.5000    0.0000 C   0  0  0  0  0  0  0  0  0  0  0  0
    2.5000   -3.6340    0.0000 C   0  0  0  0  0  0  0  0  0  0  0  0
   14.6244    2.6340    0.0000 C   0  0  0  0  0  0  0  0  0  0  0  0
   14.1244    3.5000    0.0000 C   0  0  0  0  0  0  0  0  0  0  0  0
    3.8660   -3.0000    0.0000 C   0  0  0  0  0  0  0  0  0  0  0  0
   14.2583    5.0000    0.0000 C   0  0  0  0  0  0  0  0  0  0  0  0
    5.5981   -4.0000    0.0000 C   0  0  0  0  0  0  0  0  0  0  0  0
   15.9904    6.0000    0.0000 C   0  0  0  0  0  0  0  0  0  0  0  0
    4.7321   -2.5000    0.0000 C   0  0  0  0  0  0  0  0  0  0  0  0
   13.3923    4.5000    0.0000 C   0  0  0  0  0  0  0  0  0  0  0  0
    4.7321   -1.5000    0.0000 C   0  0  0  0  0  0  0  0  0  0  0  0
   12.5263    5.0000    0.0000 C   0  0  0  0  0  0  0  0  0  0  0  0
    3.8660   -1.0000    0.0000 C   0  0  0  0  0  0  0  0  0  0  0  0
   12.5263    6.0000    0.0000 C   0  0  0  0  0  0  0  0  0  0  0  0
    5.5981   -1.0000    0.0000 C   0  0  0  0  0  0  0  0  0  0  0  0
   11.6603    4.5000    0.0000 C   0  0  0  0  0  0  0  0  0  0  0  0
    5.5981    0.0000    0.0000 C   0  0  0  0  0  0  0  0  0  0  0  0
   10.7942    5.0000    0.0000 C   0  0  0  0  0  0  0  0  0  0  0  0
    6.4641    0.5000    0.0000 C   0  0  0  0  0  0  0  0  0  0  0  0
    9.9282    4.5000    0.0000 C   0  0  0  0  0  0  0  0  0  0  0  0
    6.4641    1.5000    0.0000 C   0  0  0  0  0  0  0  0  0  0  0  0
    9.0622    5.0000    0.0000 C   0  0  0  0  0  0  0  0  0  0  0  0
    5.5981    2.0000    0.0000 C   0  0  0  0  0  0  0  0  0  0  0  0
    9.0622    6.0000    0.0000 C   0  0  0  0  0  0  0  0  0  0  0  0
    7.3301    2.0000    0.0000 C   0  0  0  0  0  0  0  0  0  0  0  0
    8.1962    4.5000    0.0000 C   0  0  0  0  0  0  0  0  0  0  0  0
    7.3301    3.0000    0.0000 C   0  0  0  0  0  0  0  0  0  0  0  0
    8.1962    3.5000    0.0000 C   0  0  0  0  0  0  0  0  0  0  0  0
    2.3894   -5.3923    0.0000 H   0  0  0  0  0  0  0  0  0  0  0  0
    2.7880   -6.0826    0.0000 H   0  0  0  0  0  0  0  0  0  0  0  0
   15.5919    2.5251    0.0000 H   0  0  0  0  0  0  0  0  0  0  0  0
   16.3889    2.5251    0.0000 H   0  0  0  0  0  0  0  0  0  0  0  0
    3.4675   -6.4750    0.0000 H   0  0  0  0  0  0  0  0  0  0  0  0
    4.2646   -6.4750    0.0000 H   0  0  0  0  0  0  0  0  0  0  0  0
   17.0685    2.9174    0.0000 H   0  0  0  0  0  0  0  0  0  0  0  0
   17.4670    3.6077    0.0000 H   0  0  0  0  0  0  0  0  0  0  0  0
    4.9441   -6.0826    0.0000 H   0  0  0  0  0  0  0  0  0  0  0  0
    5.3426   -5.3923    0.0000 H   0  0  0  0  0  0  0  0  0  0  0  0
   17.4670    4.3923    0.0000 H   0  0  0  0  0  0  0  0  0  0  0  0
   17.0685    5.0826    0.0000 H   0  0  0  0  0  0  0  0  0  0  0  0
    2.0000   -3.8800    0.0000 H   0  0  0  0  0  0  0  0  0  0  0  0
    1.3800   -4.5000    0.0000 H   0  0  0  0  0  0  0  0  0  0  0  0
    2.0000   -5.1200    0.0000 H   0  0  0  0  0  0  0  0  0  0  0  0
    3.0369   -3.3240    0.0000 H   0  0  0  0  0  0  0  0  0  0  0  0
    2.1900   -3.0970    0.0000 H   0  0  0  0  0  0  0  0  0  0  0  0
    1.9631   -3.9440    0.0000 H   0  0  0  0  0  0  0  0  0  0  0  0
   14.0874    2.9440    0.0000 H   0  0  0  0  0  0  0  0  0  0  0  0
   14.3144    2.0970    0.0000 H   0  0  0  0  0  0  0  0  0  0  0  0
   15.1613    2.3240    0.0000 H   0  0  0  0  0  0  0  0  0  0  0  0
   14.1244    4.1200    0.0000 H   0  0  0  0  0  0  0  0  0  0  0  0
   13.5044    3.5000    0.0000 H   0  0  0  0  0  0  0  0  0  0  0  0
   14.1244    2.8800    0.0000 H   0  0  0  0  0  0  0  0  0  0  0  0
    3.3291   -2.6900    0.0000 H   0  0  0  0  0  0  0  0  0  0  0  0
   14.2583    5.6200    0.0000 H   0  0  0  0  0  0  0  0  0  0  0  0
    5.9081   -4.5369    0.0000 H   0  0  0  0  0  0  0  0  0  0  0  0
    6.1350   -3.6900    0.0000 H   0  0  0  0  0  0  0  0  0  0  0  0
    5.2881   -3.4631    0.0000 H   0  0  0  0  0  0  0  0  0  0  0  0
   16.6104    6.0000    0.0000 H   0  0  0  0  0  0  0  0  0  0  0  0
   15.9904    6.6200    0.0000 H   0  0  0  0  0  0  0  0  0  0  0  0
   15.3704    6.0000    0.0000 H   0  0  0  0  0  0  0  0  0  0  0  0
    5.2690   -2.8100    0.0000 H   0  0  0  0  0  0  0  0  0  0  0  0
   13.3923    3.8800    0.0000 H   0  0  0  0  0  0  0  0  0  0  0  0
    4.1760   -0.4631    0.0000 H   0  0  0  0  0  0  0  0  0  0  0  0
    3.3291   -0.6900    0.0000 H   0  0  0  0  0  0  0  0  0  0  0  0
    3.5560   -1.5369    0.0000 H   0  0  0  0  0  0  0  0  0  0  0  0
   13.1463    6.0000    0.0000 H   0  0  0  0  0  0  0  0  0  0  0  0
   12.5263    6.6200    0.0000 H   0  0  0  0  0  0  0  0  0  0  0  0
   11.9063    6.0000    0.0000 H   0  0  0  0  0  0  0  0  0  0  0  0
    6.1350   -1.3100    0.0000 H   0  0  0  0  0  0  0  0  0  0  0  0
   11.6603    3.8800    0.0000 H   0  0  0  0  0  0  0  0  0  0  0  0
    5.0611    0.3100    0.0000 H   0  0  0  0  0  0  0  0  0  0  0  0
   10.7942    5.6200    0.0000 H   0  0  0  0  0  0  0  0  0  0  0  0
    7.0010    0.1900    0.0000 H   0  0  0  0  0  0  0  0  0  0  0  0
    9.9282    3.8800    0.0000 H   0  0  0  0  0  0  0  0  0  0  0  0
    5.9081    2.5369    0.0000 H   0  0  0  0  0  0  0  0  0  0  0  0
    5.0611    2.3100    0.0000 H   0  0  0  0  0  0  0  0  0  0  0  0
    5.2881    1.4631    0.0000 H   0  0  0  0  0  0  0  0  0  0  0  0
    9.6822    6.0000    0.0000 H   0  0  0  0  0  0  0  0  0  0  0  0
    9.0622    6.6200    0.0000 H   0  0  0  0  0  0  0  0  0  0  0  0
    8.4422    6.0000    0.0000 H   0  0  0  0  0  0  0  0  0  0  0  0
    7.8671    1.6900    0.0000 H   0  0  0  0  0  0  0  0  0  0  0  0
    7.6592    4.8100    0.0000 H   0  0  0  0  0  0  0  0  0  0  0  0
    6.7932    3.3100    0.0000 H   0  0  0  0  0  0  0  0  0  0  0  0
    8.7331    3.1900    0.0000 H   0  0  0  0  0  0  0  0  0  0  0  0
  1  3  1  0  0  0  0
  1  7  1  0  0  0  0
  1 13  1  0  0  0  0
  1 14  1  0  0  0  0
  2  4  1  0  0  0  0
  2  8  1  0  0  0  0
  2 15  1  0  0  0  0
  2 16  1  0  0  0  0
  3  5  1  0  0  0  0
  3 41  1  0  0  0  0
  3 42  1  0  0  0  0
  4  6  1  0  0  0  0
  4 43  1  0  0  0  0
  4 44  1  0  0  0  0
  5  9  1  0  0  0  0
  5 45  1  0  0  0  0
  5 46  1  0  0  0  0
  6 10  1  0  0  0  0
  6 47  1  0  0  0  0
  6 48  1  0  0  0  0
  7 11  2  0  0  0  0
  7 17  1  0  0  0  0
  8 12  2  0  0  0  0
  8 18  1  0  0  0  0
  9 11  1  0  0  0  0
  9 49  1  0  0  0  0
  9 50  1  0  0  0  0
 10 12  1  0  0  0  0
 10 51  1  0  0  0  0
 10 52  1  0  0  0  0
 11 19  1  0  0  0  0
 12 20  1  0  0  0  0
 13 53  1  0  0  0  0
 13 54  1  0  0  0  0
 13 55  1  0  0  0  0
 14 56  1  0  0  0  0
 14 57  1  0  0  0  0
 14 58  1  0  0  0  0
 15 59  1  0  0  0  0
 15 60  1  0  0  0  0
 15 61  1  0  0  0  0
 16 62  1  0  0  0  0
 16 63  1  0  0  0  0
 16 64  1  0  0  0  0
 17 21  2  0  0  0  0
 17 65  1  0  0  0  0
 18 22  2  0  0  0  0
 18 66  1  0  0  0  0
 19 67  1  0  0  0  0
 19 68  1  0  0  0  0
 19 69  1  0  0  0  0
 20 70  1  0  0  0  0
 20 71  1  0  0  0  0
 20 72  1  0  0  0  0
 21 23  1  0  0  0  0
 21 73  1  0  0  0  0
 22 24  1  0  0  0  0
 22 74  1  0  0  0  0
 23 25  1  0  0  0  0
 23 27  2  0  0  0  0
 24 26  1  0  0  0  0
 24 28  2  0  0  0  0
 25 75  1  0  0  0  0
 25 76  1  0  0  0  0
 25 77  1  0  0  0  0
 26 78  1  0  0  0  0
 26 79  1  0  0  0  0
 26 80  1  0  0  0  0
 27 29  1  0  0  0  0
 27 81  1  0  0  0  0
 28 30  1  0  0  0  0
 28 82  1  0  0  0  0
 29 31  2  0  0  0  0
 29 83  1  0  0  0  0
 30 32  2  0  0  0  0
 30 84  1  0  0  0  0
 31 33  1  0  0  0  0
 31 85  1  0  0  0  0
 32 34  1  0  0  0  0
 32 86  1  0  0  0  0
 33 35  1  0  0  0  0
 33 37  2  0  0  0  0
 34 36  1  0  0  0  0
 34 38  2  0  0  0  0
 35 87  1  0  0  0  0
 35 88  1  0  0  0  0
 35 89  1  0  0  0  0
 36 90  1  0  0  0  0
 36 91  1  0  0  0  0
 36 92  1  0  0  0  0
 37 39  1  0  0  0  0
 37 93  1  0  0  0  0
 38 40  1  0  0  0  0
 38 94  1  0  0  0  0
 39 40  2  0  0  0  0
 39 95  1  0  0  0  0
 40 96  1  0  0  0  0
M  END
>  <PUBCHEM_COMPOUND_CID>
10256668

>  <PUBCHEM_COMPOUND_CANONICALIZED>
1

>  <PUBCHEM_CACTVS_COMPLEXITY>
1120

>  <PUBCHEM_CACTVS_HBOND_ACCEPTOR>
0

>  <PUBCHEM_CACTVS_HBOND_DONOR>
0

>  <PUBCHEM_CACTVS_ROTATABLE_BOND>
10

>  <PUBCHEM_CACTVS_SUBSKEYS>
AAADcfB8AAAAAAAAAAAAAAAAAAAAAAAAAAAgQAAAAAAAAAAAAAAAGAAAAAAADgCAAAACAAAAAACAAiBCAAAAAAAgAAAICAAAAAgIAAIAAQAAAAAAgAAIgAMAgMAPAAAAAAAAAAAAAAAAAAAAAAAAAAAAAA==

>  <PUBCHEM_IUPAC_OPENEYE_NAME>
1,3,3-trimethyl-2-[(1E,3E,5E,7E,9E,11Z,13E,15E,17E)-3,7,12,16-tetramethyl-18-(2,6,6-trimethylcyclohexen-1-yl)octadeca-1,3,5,7,9,11,13,15,17-nonaenyl]cyclohexene

>  <PUBCHEM_IUPAC_CAS_NAME>
1,3,3-trimethyl-2-[(1E,3E,5E,7E,9E,11Z,13E,15E,17E)-3,7,12,16-tetramethyl-18-(2,6,6-trimethyl-1-cyclohexenyl)octadeca-1,3,5,7,9,11,13,15,17-nonaenyl]cyclohexene

>  <PUBCHEM_IUPAC_NAME_MARKUP>
1,3,3-trimethyl-2-[(1<I>E</I>,3<I>E</I>,5<I>E</I>,7<I>E</I>,9<I>E</I>,11<I>Z</I>,13<I>E</I>,15<I>E</I>,17<I>E</I>)-3,7,12,16-tetramethyl-18-(2,6,6-trimethylcyclohexen-1-yl)octadeca-1,3,5,7,9,11,13,15,17-nonaenyl]cyclohexene

>  <PUBCHEM_IUPAC_NAME>
1,3,3-trimethyl-2-[(1E,3E,5E,7E,9E,11Z,13E,15E,17E)-3,7,12,16-tetramethyl-18-(2,6,6-trimethylcyclohexen-1-yl)octadeca-1,3,5,7,9,11,13,15,17-nonaenyl]cyclohexene

>  <PUBCHEM_IUPAC_SYSTEMATIC_NAME>
1,3,3-trimethyl-2-[(1E,3E,5E,7E,9E,11Z,13E,15E,17E)-3,7,12,16-tetramethyl-18-(2,6,6-trimethylcyclohexen-1-yl)octadeca-1,3,5,7,9,11,13,15,17-nonaenyl]cyclohexene

>  <PUBCHEM_IUPAC_TRADITIONAL_NAME>
1,3,3-trimethyl-2-[(1E,3E,5E,7E,9E,11Z,13E,15E,17E)-3,7,12,16-tetramethyl-18-(2,6,6-trimethylcyclohexen-1-yl)octadeca-1,3,5,7,9,11,13,15,17-nonaenyl]cyclohexene

>  <PUBCHEM_IUPAC_INCHI>
InChI=1S/C40H56/c1-31(19-13-21-33(3)25-27-37-35(5)23-15-29-39(37,7)8)17-11-12-18-32(2)20-14-22-34(4)26-28-38-36(6)24-16-30-40(38,9)10/h11-14,17-22,25-28H,15-16,23-24,29-30H2,1-10H3/b12-11+,19-13+,20-14+,27-25+,28-26+,31-17-,32-18+,33-21+,34-22+

>  <PUBCHEM_IUPAC_INCHIKEY>
OENHQHLEOONYIE-MZMZTKINSA-N

>  <PUBCHEM_XLOGP3>
13.5

>  <PUBCHEM_EXACT_MASS>
536.438201786

>  <PUBCHEM_MOLECULAR_FORMULA>
C40H56

>  <PUBCHEM_MOLECULAR_WEIGHT>
536.9

>  <PUBCHEM_SMILES>
CC1=C(C(CCC1)(C)C)/C=C/C(=C/C=C/C(=C/C=C/C=C(/C)\C=C\C=C(/C)\C=C\C2=C(CCCC2(C)C)C)/C)/C

>  <PUBCHEM_OPENEYE_CAN_SMILES>
CC1=C(C(CCC1)(C)C)C=CC(=CC=CC(=CC=CC=C(C)C=CC=C(C)C=CC2=C(CCCC2(C)C)C)C)C

>  <PUBCHEM_OPENEYE_ISO_SMILES>
CC1=C(C(CCC1)(C)C)/C=C/C(=C/C=C/C(=C/C=C/C=C(/C)\C=C\C=C(/C)\C=C\C2=C(CCCC2(C)C)C)/C)/C

>  <PUBCHEM_CACTVS_TPSA>
0

>  <PUBCHEM_MONOISOTOPIC_WEIGHT>
536.438201786

>  <PUBCHEM_TOTAL_CHARGE>
0

>  <PUBCHEM_HEAVY_ATOM_COUNT>
40

>  <PUBCHEM_ATOM_DEF_STEREO_COUNT>
0

>  <PUBCHEM_ATOM_UDEF_STEREO_COUNT>
0

>  <PUBCHEM_BOND_DEF_STEREO_COUNT>
9

>  <PUBCHEM_BOND_UDEF_STEREO_COUNT>
0

>  <PUBCHEM_ISOTOPIC_ATOM_COUNT>
0

>  <PUBCHEM_COMPONENT_COUNT>
1

>  <PUBCHEM_CACTVS_TAUTO_COUNT>
-1

>  <PUBCHEM_COORDINATE_TYPE>
1
5
255

$$$$
