11734696
 OpenBabel06082519392D

100102  0  0  1  0  0  0  0  0999 V2000
    4.3010   10.2788    0.0000 O   0  0  0  0  0  0  0  0  0  0  0  0
    2.5314    7.2534    0.0000 O   0  0  0  0  0  0  0  0  0  0  0  0
   11.7508   -7.6930    0.0000 O   0  0  0  0  0  0  0  0  0  0  0  0
    7.5886   -7.9518    0.0000 O   0  0  0  0  0  0  0  0  0  0  0  0
    4.7788    8.3302    0.0000 C   0  0  2  0  0  0  0  0  0  0  0  0
    6.1777    7.8214    0.0000 C   0  0  0  0  0  0  0  0  0  0  0  0
    3.4061    7.7382    0.0000 C   0  0  1  0  0  0  0  0  0  0  0  0
    5.0376    9.2962    0.0000 C   0  0  1  0  0  0  0  0  0  0  0  0
    6.4365    8.7874    0.0000 C   0  0  0  0  0  0  0  0  0  0  0  0
    3.0640    8.6779    0.0000 C   0  0  0  0  0  0  0  0  0  0  0  0
    7.1722    7.9260    0.0000 C   0  0  0  0  0  0  0  0  0  0  0  0
    6.7370    6.9924    0.0000 C   0  0  0  0  0  0  0  0  0  0  0  0
    4.5200    7.3643    0.0000 C   0  0  0  0  0  0  0  0  0  0  0  0
    3.0805    6.7927    0.0000 C   0  0  0  0  0  0  0  0  0  0  0  0
    9.7156   -9.2911    0.0000 C   0  0  0  0  0  0  0  0  0  0  0  0
    5.2271    6.6572    0.0000 C   0  0  0  0  0  0  0  0  0  0  0  0
    9.2616   -8.4001    0.0000 C   0  0  2  0  0  0  0  0  0  0  0  0
   10.7033   -9.1347    0.0000 C   0  0  0  0  0  0  0  0  0  0  0  0
    9.9688   -7.6930    0.0000 C   0  0  0  0  0  0  0  0  0  0  0  0
   10.8598   -8.1470    0.0000 C   0  0  1  0  0  0  0  0  0  0  0  0
    9.8721  -10.2788    0.0000 C   0  0  0  0  0  0  0  0  0  0  0  0
    8.8246   -9.7451    0.0000 C   0  0  0  0  0  0  0  0  0  0  0  0
    8.3706   -8.8541    0.0000 C   0  0  0  0  0  0  0  0  0  0  0  0
    4.9682    5.6913    0.0000 C   0  0  0  0  0  0  0  0  0  0  0  0
    8.5545   -7.6930    0.0000 C   0  0  0  0  0  0  0  0  0  0  0  0
    4.0023    5.4325    0.0000 C   0  0  0  0  0  0  0  0  0  0  0  0
    5.6753    4.9842    0.0000 C   0  0  0  0  0  0  0  0  0  0  0  0
    8.8134   -6.7270    0.0000 C   0  0  0  0  0  0  0  0  0  0  0  0
    8.1062   -6.0200    0.0000 C   0  0  0  0  0  0  0  0  0  0  0  0
    5.4165    4.0182    0.0000 C   0  0  0  0  0  0  0  0  0  0  0  0
    8.3651   -5.0540    0.0000 C   0  0  0  0  0  0  0  0  0  0  0  0
    6.1236    3.3111    0.0000 C   0  0  0  0  0  0  0  0  0  0  0  0
    9.3310   -4.7952    0.0000 C   0  0  0  0  0  0  0  0  0  0  0  0
    7.6580   -4.3469    0.0000 C   0  0  0  0  0  0  0  0  0  0  0  0
    5.8648    2.3452    0.0000 C   0  0  0  0  0  0  0  0  0  0  0  0
    7.9168   -3.3810    0.0000 C   0  0  0  0  0  0  0  0  0  0  0  0
    4.8989    2.0864    0.0000 C   0  0  0  0  0  0  0  0  0  0  0  0
    6.5719    1.6381    0.0000 C   0  0  0  0  0  0  0  0  0  0  0  0
    7.2097   -2.6739    0.0000 C   0  0  0  0  0  0  0  0  0  0  0  0
    6.3131    0.6722    0.0000 C   0  0  0  0  0  0  0  0  0  0  0  0
    7.4685   -1.7080    0.0000 C   0  0  0  0  0  0  0  0  0  0  0  0
    7.0202   -0.0349    0.0000 C   0  0  0  0  0  0  0  0  0  0  0  0
    6.7614   -1.0008    0.0000 C   0  0  0  0  0  0  0  0  0  0  0  0
    8.4344   -1.4491    0.0000 C   0  0  0  0  0  0  0  0  0  0  0  0
    5.2576   10.1172    0.0000 H   0  0  0  0  0  0  0  0  0  0  0  0
    7.0305    8.6096    0.0000 H   0  0  0  0  0  0  0  0  0  0  0  0
    6.6315    9.3759    0.0000 H   0  0  0  0  0  0  0  0  0  0  0  0
    2.8697    9.2667    0.0000 H   0  0  0  0  0  0  0  0  0  0  0  0
    2.4783    8.4747    0.0000 H   0  0  0  0  0  0  0  0  0  0  0  0
    7.2370    7.3094    0.0000 H   0  0  0  0  0  0  0  0  0  0  0  0
    7.7888    7.9908    0.0000 H   0  0  0  0  0  0  0  0  0  0  0  0
    7.1074    8.5426    0.0000 H   0  0  0  0  0  0  0  0  0  0  0  0
    6.2230    6.6457    0.0000 H   0  0  0  0  0  0  0  0  0  0  0  0
    7.0837    6.4785    0.0000 H   0  0  0  0  0  0  0  0  0  0  0  0
    7.2510    7.3392    0.0000 H   0  0  0  0  0  0  0  0  0  0  0  0
    4.0815    6.9260    0.0000 H   0  0  0  0  0  0  0  0  0  0  0  0
    2.4943    6.9946    0.0000 H   0  0  0  0  0  0  0  0  0  0  0  0
    2.8786    6.2065    0.0000 H   0  0  0  0  0  0  0  0  0  0  0  0
    3.6667    6.5908    0.0000 H   0  0  0  0  0  0  0  0  0  0  0  0
    2.0000    7.5727    0.0000 H   0  0  0  0  0  0  0  0  0  0  0  0
    5.7890    6.3952    0.0000 H   0  0  0  0  0  0  0  0  0  0  0  0
   10.7358   -9.7538    0.0000 H   0  0  0  0  0  0  0  0  0  0  0  0
   11.3225   -9.1671    0.0000 H   0  0  0  0  0  0  0  0  0  0  0  0
   10.3064   -7.1730    0.0000 H   0  0  0  0  0  0  0  0  0  0  0  0
    9.4869   -7.3028    0.0000 H   0  0  0  0  0  0  0  0  0  0  0  0
   11.3614   -8.5114    0.0000 H   0  0  0  0  0  0  0  0  0  0  0  0
    9.2597  -10.3758    0.0000 H   0  0  0  0  0  0  0  0  0  0  0  0
    9.9691  -10.8911    0.0000 H   0  0  0  0  0  0  0  0  0  0  0  0
   10.4844  -10.1818    0.0000 H   0  0  0  0  0  0  0  0  0  0  0  0
    8.5432   -9.1927    0.0000 H   0  0  0  0  0  0  0  0  0  0  0  0
    8.2722  -10.0266    0.0000 H   0  0  0  0  0  0  0  0  0  0  0  0
    9.1061  -10.2975    0.0000 H   0  0  0  0  0  0  0  0  0  0  0  0
    8.0892   -8.3016    0.0000 H   0  0  0  0  0  0  0  0  0  0  0  0
    7.8182   -9.1356    0.0000 H   0  0  0  0  0  0  0  0  0  0  0  0
    8.6521   -9.4065    0.0000 H   0  0  0  0  0  0  0  0  0  0  0  0
   12.2707   -8.0306    0.0000 H   0  0  0  0  0  0  0  0  0  0  0  0
    3.8418    6.0313    0.0000 H   0  0  0  0  0  0  0  0  0  0  0  0
    3.4034    5.2720    0.0000 H   0  0  0  0  0  0  0  0  0  0  0  0
    4.1628    4.8336    0.0000 H   0  0  0  0  0  0  0  0  0  0  0  0
    9.4122   -6.5666    0.0000 H   0  0  0  0  0  0  0  0  0  0  0  0
    6.2742    5.1446    0.0000 H   0  0  0  0  0  0  0  0  0  0  0  0
    7.5074   -6.1804    0.0000 H   0  0  0  0  0  0  0  0  0  0  0  0
    4.8177    3.8578    0.0000 H   0  0  0  0  0  0  0  0  0  0  0  0
    6.7225    3.4716    0.0000 H   0  0  0  0  0  0  0  0  0  0  0  0
    9.4915   -5.3941    0.0000 H   0  0  0  0  0  0  0  0  0  0  0  0
    9.9299   -4.6347    0.0000 H   0  0  0  0  0  0  0  0  0  0  0  0
    9.1705   -4.1963    0.0000 H   0  0  0  0  0  0  0  0  0  0  0  0
    7.0591   -4.5074    0.0000 H   0  0  0  0  0  0  0  0  0  0  0  0
    8.5157   -3.2205    0.0000 H   0  0  0  0  0  0  0  0  0  0  0  0
    4.7384    2.6853    0.0000 H   0  0  0  0  0  0  0  0  0  0  0  0
    4.3000    1.9259    0.0000 H   0  0  0  0  0  0  0  0  0  0  0  0
    5.0594    1.4875    0.0000 H   0  0  0  0  0  0  0  0  0  0  0  0
    7.1708    1.7986    0.0000 H   0  0  0  0  0  0  0  0  0  0  0  0
    6.6108   -2.8344    0.0000 H   0  0  0  0  0  0  0  0  0  0  0  0
    5.7142    0.5117    0.0000 H   0  0  0  0  0  0  0  0  0  0  0  0
    7.6191    0.1255    0.0000 H   0  0  0  0  0  0  0  0  0  0  0  0
    6.1625   -1.1613    0.0000 H   0  0  0  0  0  0  0  0  0  0  0  0
    8.5949   -2.0480    0.0000 H   0  0  0  0  0  0  0  0  0  0  0  0
    9.0333   -1.2887    0.0000 H   0  0  0  0  0  0  0  0  0  0  0  0
    8.2739   -0.8503    0.0000 H   0  0  0  0  0  0  0  0  0  0  0  0
  1  5  1  0  0  0  0
  1  8  1  0  0  0  0
  2 60  1  0  0  0  0
  3 76  1  0  0  0  0
  4 25  2  0  0  0  0
  5  6  1  0  0  0  0
  5  7  1  0  0  0  0
  5 13  1  1  0  0  0
  6  9  1  0  0  0  0
  6 11  1  0  0  0  0
  6 12  1  0  0  0  0
  7  2  1  6  0  0  0
  7 10  1  0  0  0  0
  7 14  1  0  0  0  0
  8  9  1  0  0  0  0
  8 10  1  0  0  0  0
  8 45  1  6  0  0  0
  9 46  1  0  0  0  0
  9 47  1  0  0  0  0
 10 48  1  0  0  0  0
 10 49  1  0  0  0  0
 11 50  1  0  0  0  0
 11 51  1  0  0  0  0
 11 52  1  0  0  0  0
 12 53  1  0  0  0  0
 12 54  1  0  0  0  0
 12 55  1  0  0  0  0
 13 16  2  0  0  0  0
 13 56  1  0  0  0  0
 14 57  1  0  0  0  0
 14 58  1  0  0  0  0
 14 59  1  0  0  0  0
 15 17  1  0  0  0  0
 15 18  1  0  0  0  0
 15 21  1  0  0  0  0
 15 22  1  0  0  0  0
 16 24  1  0  0  0  0
 16 61  1  0  0  0  0
 17 19  1  0  0  0  0
 17 23  1  0  0  0  0
 17 25  1  6  0  0  0
 18 20  1  0  0  0  0
 18 62  1  0  0  0  0
 18 63  1  0  0  0  0
 19 20  1  0  0  0  0
 19 64  1  0  0  0  0
 19 65  1  0  0  0  0
 20  3  1  0  0  0  0
 20 66  1  6  0  0  0
 21 67  1  0  0  0  0
 21 68  1  0  0  0  0
 21 69  1  0  0  0  0
 22 70  1  0  0  0  0
 22 71  1  0  0  0  0
 22 72  1  0  0  0  0
 23 73  1  0  0  0  0
 23 74  1  0  0  0  0
 23 75  1  0  0  0  0
 24 26  1  0  0  0  0
 24 27  2  0  0  0  0
 25 28  1  0  0  0  0
 26 77  1  0  0  0  0
 26 78  1  0  0  0  0
 26 79  1  0  0  0  0
 27 30  1  0  0  0  0
 27 81  1  0  0  0  0
 28 29  2  0  0  0  0
 28 80  1  0  0  0  0
 29 31  1  0  0  0  0
 29 82  1  0  0  0  0
 30 32  2  0  0  0  0
 30 83  1  0  0  0  0
 31 33  1  0  0  0  0
 31 34  2  0  0  0  0
 32 35  1  0  0  0  0
 32 84  1  0  0  0  0
 33 85  1  0  0  0  0
 33 86  1  0  0  0  0
 33 87  1  0  0  0  0
 34 36  1  0  0  0  0
 34 88  1  0  0  0  0
 35 37  1  0  0  0  0
 35 38  2  0  0  0  0
 36 39  2  0  0  0  0
 36 89  1  0  0  0  0
 37 90  1  0  0  0  0
 37 91  1  0  0  0  0
 37 92  1  0  0  0  0
 38 40  1  0  0  0  0
 38 93  1  0  0  0  0
 39 41  1  0  0  0  0
 39 94  1  0  0  0  0
 40 42  2  0  0  0  0
 40 95  1  0  0  0  0
 41 43  2  0  0  0  0
 41 44  1  0  0  0  0
 42 43  1  0  0  0  0
 42 96  1  0  0  0  0
 43 97  1  0  0  0  0
 44 98  1  0  0  0  0
 44 99  1  0  0  0  0
 44100  1  0  0  0  0
M  END
>  <PUBCHEM_COMPOUND_CID>
11734696

>  <PUBCHEM_COMPOUND_CANONICALIZED>
1

>  <PUBCHEM_CACTVS_COMPLEXITY>
1360

>  <PUBCHEM_CACTVS_HBOND_ACCEPTOR>
4

>  <PUBCHEM_CACTVS_HBOND_DONOR>
2

>  <PUBCHEM_CACTVS_ROTATABLE_BOND>
11

>  <PUBCHEM_CACTVS_SUBSKEYS>
AAADcfB8OAAAAAAAAAAAAAAAAAAAAaJEAAAwAAAAAAAAAAAAAAAAGgAACAAADlSggAICAAAABgCIAqBSAAAAAAAgAAAICAEAAEgJFBIAIQACUAAFwAALoYOK7PTPgAAAAAAAAABAAAYQADCAAIAACAAAAA==

>  <PUBCHEM_IUPAC_OPENEYE_NAME>
(2E,4E,6E,8E,10E,12E,14E,16E,18E)-1-[(1R,4S)-4-hydroxy-1,2,2-trimethyl-cyclopentyl]-19-[(1R,2R,4S)-2-hydroxy-2,6,6-trimethyl-7-oxabicyclo[2.2.1]heptan-1-yl]-4,8,13,17-tetramethyl-nonadeca-2,4,6,8,10,12,14,16,18-nonaen-1-one

>  <PUBCHEM_IUPAC_CAS_NAME>
(2E,4E,6E,8E,10E,12E,14E,16E,18E)-1-[(1R,4S)-4-hydroxy-1,2,2-trimethylcyclopentyl]-19-[(1R,2R,4S)-2-hydroxy-2,6,6-trimethyl-7-oxabicyclo[2.2.1]heptan-1-yl]-4,8,13,17-tetramethyl-1-nonadeca-2,4,6,8,10,12,14,16,18-nonaenone

>  <PUBCHEM_IUPAC_NAME_MARKUP>
(2<I>E</I>,4<I>E</I>,6<I>E</I>,8<I>E</I>,10<I>E</I>,12<I>E</I>,14<I>E</I>,16<I>E</I>,18<I>E</I>)-1-[(1<I>R</I>,4<I>S</I>)-4-hydroxy-1,2,2-trimethylcyclopentyl]-19-[(1<I>R</I>,2<I>R</I>,4<I>S</I>)-2-hydroxy-2,6,6-trimethyl-7-oxabicyclo[2.2.1]heptan-1-yl]-4,8,13,17-tetramethylnonadeca-2,4,6,8,10,12,14,16,18-nonaen-1-one

>  <PUBCHEM_IUPAC_NAME>
(2E,4E,6E,8E,10E,12E,14E,16E,18E)-1-[(1R,4S)-4-hydroxy-1,2,2-trimethylcyclopentyl]-19-[(1R,2R,4S)-2-hydroxy-2,6,6-trimethyl-7-oxabicyclo[2.2.1]heptan-1-yl]-4,8,13,17-tetramethylnonadeca-2,4,6,8,10,12,14,16,18-nonaen-1-one

>  <PUBCHEM_IUPAC_SYSTEMATIC_NAME>
(2E,4E,6E,8E,10E,12E,14E,16E,18E)-4,8,13,17-tetramethyl-1-[(1R,4S)-1,2,2-trimethyl-4-oxidanyl-cyclopentyl]-19-[(1R,4S,6R)-2,2,6-trimethyl-6-oxidanyl-7-oxabicyclo[2.2.1]heptan-1-yl]nonadeca-2,4,6,8,10,12,14,16,18-nonaen-1-one

>  <PUBCHEM_IUPAC_TRADITIONAL_NAME>
(2E,4E,6E,8E,10E,12E,14E,16E,18E)-1-[(1R,4S)-4-hydroxy-1,2,2-trimethyl-cyclopentyl]-19-[(1R,2R,4S)-2-hydroxy-2,6,6-trimethyl-7-oxabicyclo[2.2.1]heptan-1-yl]-4,8,13,17-tetramethyl-nonadeca-2,4,6,8,10,12,14,16,18-nonaen-1-one

>  <PUBCHEM_IUPAC_INCHI>
InChI=1S/C40H56O4/c1-29(17-13-19-31(3)21-22-35(42)38(9)26-33(41)25-36(38,5)6)15-11-12-16-30(2)18-14-20-32(4)23-24-40-37(7,8)27-34(44-40)28-39(40,10)43/h11-24,33-34,41,43H,25-28H2,1-10H3/b12-11+,17-13+,18-14+,22-21+,24-23+,29-15+,30-16+,31-19+,32-20+/t33-,34-,38-,39+,40+/m0/s1

>  <PUBCHEM_IUPAC_INCHIKEY>
TWTPPPZIWNGQCQ-YNKJSWFTSA-N

>  <PUBCHEM_XLOGP3_AA>
10

>  <PUBCHEM_EXACT_MASS>
600.41786026

>  <PUBCHEM_MOLECULAR_FORMULA>
C40H56O4

>  <PUBCHEM_MOLECULAR_WEIGHT>
600.9

>  <PUBCHEM_SMILES>
C/C(=C\C=C\C=C(/C)\C=C\C=C(/C)\C=C\[C@@]12[C@](C[C@@H](O1)CC2(C)C)(C)O)/C=C/C=C(\C)/C=C/C(=O)[C@@]3(C[C@H](CC3(C)C)O)C

>  <PUBCHEM_OPENEYE_CAN_SMILES>
CC(=CC=CC=C(C)C=CC=C(C)C=CC12C(CC(O1)CC2(C)O)(C)C)C=CC=C(C)C=CC(=O)C3(CC(CC3(C)C)O)C

>  <PUBCHEM_OPENEYE_ISO_SMILES>
C/C(=C\C=C\C=C(/C)\C=C\C=C(/C)\C=C\[C@@]12[C@](C[C@@H](O1)CC2(C)C)(C)O)/C=C/C=C(\C)/C=C/C(=O)[C@@]3(C[C@H](CC3(C)C)O)C

>  <PUBCHEM_CACTVS_TPSA>
66.8

>  <PUBCHEM_MONOISOTOPIC_WEIGHT>
600.41786026

>  <PUBCHEM_TOTAL_CHARGE>
0

>  <PUBCHEM_HEAVY_ATOM_COUNT>
44

>  <PUBCHEM_ATOM_DEF_STEREO_COUNT>
5

>  <PUBCHEM_ATOM_UDEF_STEREO_COUNT>
0

>  <PUBCHEM_BOND_DEF_STEREO_COUNT>
9

>  <PUBCHEM_BOND_UDEF_STEREO_COUNT>
0

>  <PUBCHEM_ISOTOPIC_ATOM_COUNT>
0

>  <PUBCHEM_COMPONENT_COUNT>
1

>  <PUBCHEM_CACTVS_TAUTO_COUNT>
-1

>  <PUBCHEM_COORDINATE_TYPE>
1
5
255

>  <PUBCHEM_BONDANNOTATIONS>
17  23  5
7  2  6
20  3  5
5  13  5
8  45  6

$$$$
