14353451
 OpenBabel06082519392D

 97102  0  0  1  0  0  0  0  0999 V2000
    8.0622   -3.2890    0.0000 O   0  0  0  0  0  0  0  0  0  0  0  0
    6.3301   -1.2890    0.0000 O   0  0  0  0  0  0  0  0  0  0  0  0
    7.1962   -4.7890    0.0000 O   0  0  0  0  0  0  0  0  0  0  0  0
    8.0622   -1.2890    0.0000 O   0  0  0  0  0  0  0  0  0  0  0  0
    6.3301   -4.2890    0.0000 O   0  0  0  0  0  0  0  0  0  0  0  0
    4.5981   -3.2890    0.0000 O   0  0  0  0  0  0  0  0  0  0  0  0
    9.7942   -4.2890    0.0000 O   0  0  0  0  0  0  0  0  0  0  0  0
    9.7942   -6.2890    0.0000 O   0  0  0  0  0  0  0  0  0  0  0  0
    8.0622   -7.2890    0.0000 O   0  0  0  0  0  0  0  0  0  0  0  0
    3.7320   -1.7890    0.0000 O   0  0  0  0  0  0  0  0  0  0  0  0
    5.4520    4.2869    0.0000 O   0  0  0  0  0  0  0  0  0  0  0  0
    7.1840    4.2803    0.0000 O   0  0  0  0  0  0  0  0  0  0  0  0
    5.4636    7.2869    0.0000 O   0  0  0  0  0  0  0  0  0  0  0  0
    3.7277    6.2936    0.0000 O   0  0  0  0  0  0  0  0  0  0  0  0
    7.1918    6.2802    0.0000 O   0  0  0  0  0  0  0  0  0  0  0  0
    8.9282    1.2110    0.0000 O   0  0  0  0  0  0  0  0  0  0  0  0
    6.3301   -0.2890    0.0000 O   0  0  0  0  0  0  0  0  0  0  0  0
    5.4260    1.2079    0.0000 O   0  0  0  0  0  0  0  0  0  0  0  0
    2.8660   -0.2890    0.0000 O   0  0  0  0  0  0  0  0  0  0  0  0
   12.3923   -1.7890    0.0000 O   0  0  0  0  0  0  0  0  0  0  0  0
    7.1962   -2.7890    0.0000 C   0  0  3  0  0  0  0  0  0  0  0  0
    6.3301   -3.2890    0.0000 C   0  0  3  0  0  0  0  0  0  0  0  0
    5.4641   -2.7890    0.0000 C   0  0  3  0  0  0  0  0  0  0  0  0
    8.0622   -4.2890    0.0000 C   0  0  3  0  0  0  0  0  0  0  0  0
    7.1962   -1.7890    0.0000 C   0  0  3  0  0  0  0  0  0  0  0  0
    5.4641   -1.7890    0.0000 C   0  0  3  0  0  0  0  0  0  0  0  0
    8.9282   -4.7890    0.0000 C   0  0  3  0  0  0  0  0  0  0  0  0
    8.9282   -5.7890    0.0000 C   0  0  3  0  0  0  0  0  0  0  0  0
    8.0622   -6.2890    0.0000 C   0  0  3  0  0  0  0  0  0  0  0  0
    7.1962   -5.7890    0.0000 C   0  0  3  0  0  0  0  0  0  0  0  0
    4.5981   -1.2890    0.0000 C   0  0  0  0  0  0  0  0  0  0  0  0
    6.3301   -6.2890    0.0000 C   0  0  0  0  0  0  0  0  0  0  0  0
    5.4597    6.2869    0.0000 C   0  0  3  0  0  0  0  0  0  0  0  0
    4.5918    5.7903    0.0000 C   0  0  3  0  0  0  0  0  0  0  0  0
    6.3238    5.7836    0.0000 C   0  0  3  0  0  0  0  0  0  0  0  0
    4.5879    4.7903    0.0000 C   0  0  3  0  0  0  0  0  0  0  0  0
    6.3200    4.7836    0.0000 C   0  0  3  0  0  0  0  0  0  0  0  0
    8.0622   -0.2890    0.0000 C   0  0  0  0  0  0  0  0  0  0  0  0
    3.7200    4.2936    0.0000 C   0  0  0  0  0  0  0  0  0  0  0  0
    8.9282    0.2110    0.0000 C   0  0  0  0  0  0  0  0  0  0  0  0
    7.1962    0.2110    0.0000 C   0  0  0  0  0  0  0  0  0  0  0  0
    7.1962    1.2110    0.0000 C   0  0  0  0  0  0  0  0  0  0  0  0
    8.0622    1.7110    0.0000 C   0  0  0  0  0  0  0  0  0  0  0  0
    7.1802    3.2803    0.0000 C   0  0  0  0  0  0  0  0  0  0  0  0
    2.8660   -1.2890    0.0000 C   0  0  0  0  0  0  0  0  0  0  0  0
    8.0782    2.7525    0.0000 C   0  0  0  0  0  0  0  0  0  0  0  0
    6.2862    1.7179    0.0000 C   0  0  0  0  0  0  0  0  0  0  0  0
    9.7942   -0.2890    0.0000 C   0  0  0  0  0  0  0  0  0  0  0  0
    6.2781    2.7595    0.0000 C   0  0  0  0  0  0  0  0  0  0  0  0
    2.0000   -1.7890    0.0000 C   0  0  0  0  0  0  0  0  0  0  0  0
    9.7942   -1.2890    0.0000 C   0  0  0  0  0  0  0  0  0  0  0  0
   10.6603    0.2110    0.0000 C   0  0  0  0  0  0  0  0  0  0  0  0
   10.6603   -1.7890    0.0000 C   0  0  0  0  0  0  0  0  0  0  0  0
   11.5263   -0.2890    0.0000 C   0  0  0  0  0  0  0  0  0  0  0  0
   11.5263   -1.2890    0.0000 C   0  0  0  0  0  0  0  0  0  0  0  0
    7.1962   -3.4090    0.0000 H   0  0  0  0  0  0  0  0  0  0  0  0
    5.7932   -3.5990    0.0000 H   0  0  0  0  0  0  0  0  0  0  0  0
    5.4641   -3.4090    0.0000 H   0  0  0  0  0  0  0  0  0  0  0  0
    7.5252   -3.9790    0.0000 H   0  0  0  0  0  0  0  0  0  0  0  0
    7.7331   -2.0990    0.0000 H   0  0  0  0  0  0  0  0  0  0  0  0
    5.4641   -1.1690    0.0000 H   0  0  0  0  0  0  0  0  0  0  0  0
    9.4651   -5.0990    0.0000 H   0  0  0  0  0  0  0  0  0  0  0  0
    8.9282   -6.4090    0.0000 H   0  0  0  0  0  0  0  0  0  0  0  0
    7.5252   -6.5990    0.0000 H   0  0  0  0  0  0  0  0  0  0  0  0
    6.6592   -5.4790    0.0000 H   0  0  0  0  0  0  0  0  0  0  0  0
    4.9966   -0.8140    0.0000 H   0  0  0  0  0  0  0  0  0  0  0  0
    4.1996   -0.8140    0.0000 H   0  0  0  0  0  0  0  0  0  0  0  0
    6.0201   -5.7520    0.0000 H   0  0  0  0  0  0  0  0  0  0  0  0
    5.7932   -6.5990    0.0000 H   0  0  0  0  0  0  0  0  0  0  0  0
    6.6401   -6.8259    0.0000 H   0  0  0  0  0  0  0  0  0  0  0  0
    5.7932   -4.5990    0.0000 H   0  0  0  0  0  0  0  0  0  0  0  0
    4.5981   -3.9090    0.0000 H   0  0  0  0  0  0  0  0  0  0  0  0
    4.9240    6.5990    0.0000 H   0  0  0  0  0  0  0  0  0  0  0  0
    4.0536    5.4823    0.0000 H   0  0  0  0  0  0  0  0  0  0  0  0
   10.3312   -4.5990    0.0000 H   0  0  0  0  0  0  0  0  0  0  0  0
    6.3262    6.4036    0.0000 H   0  0  0  0  0  0  0  0  0  0  0  0
    4.5855    4.1703    0.0000 H   0  0  0  0  0  0  0  0  0  0  0  0
    9.7942   -6.9090    0.0000 H   0  0  0  0  0  0  0  0  0  0  0  0
    7.5252   -7.5990    0.0000 H   0  0  0  0  0  0  0  0  0  0  0  0
    6.8581    5.0915    0.0000 H   0  0  0  0  0  0  0  0  0  0  0  0
    3.4120    4.8318    0.0000 H   0  0  0  0  0  0  0  0  0  0  0  0
    3.1818    3.9857    0.0000 H   0  0  0  0  0  0  0  0  0  0  0  0
    4.0279    3.7555    0.0000 H   0  0  0  0  0  0  0  0  0  0  0  0
    4.9278    7.5990    0.0000 H   0  0  0  0  0  0  0  0  0  0  0  0
    3.1896    5.9857    0.0000 H   0  0  0  0  0  0  0  0  0  0  0  0
    7.1942    6.9002    0.0000 H   0  0  0  0  0  0  0  0  0  0  0  0
    8.6187    3.0563    0.0000 H   0  0  0  0  0  0  0  0  0  0  0  0
    5.7400    3.0674    0.0000 H   0  0  0  0  0  0  0  0  0  0  0  0
    1.6900   -1.2521    0.0000 H   0  0  0  0  0  0  0  0  0  0  0  0
    1.4631   -2.0990    0.0000 H   0  0  0  0  0  0  0  0  0  0  0  0
    2.3100   -2.3259    0.0000 H   0  0  0  0  0  0  0  0  0  0  0  0
    9.2573   -1.5990    0.0000 H   0  0  0  0  0  0  0  0  0  0  0  0
   10.6603    0.8310    0.0000 H   0  0  0  0  0  0  0  0  0  0  0  0
    4.8855    1.5116    0.0000 H   0  0  0  0  0  0  0  0  0  0  0  0
   10.6603   -2.4090    0.0000 H   0  0  0  0  0  0  0  0  0  0  0  0
   12.0632    0.0210    0.0000 H   0  0  0  0  0  0  0  0  0  0  0  0
   12.3923   -2.4090    0.0000 H   0  0  0  0  0  0  0  0  0  0  0  0
  1 21  1  0  0  0  0
  1 24  1  0  0  0  0
  2 25  1  0  0  0  0
  2 26  1  0  0  0  0
  3 24  1  0  0  0  0
  3 30  1  0  0  0  0
  4 25  1  0  0  0  0
  4 38  1  0  0  0  0
  5 22  1  0  0  0  0
  5 71  1  0  0  0  0
  6 23  1  0  0  0  0
  6 72  1  0  0  0  0
  7 27  1  0  0  0  0
  7 75  1  0  0  0  0
  8 28  1  0  0  0  0
  8 78  1  0  0  0  0
  9 29  1  0  0  0  0
  9 79  1  0  0  0  0
 10 31  1  0  0  0  0
 10 45  1  0  0  0  0
 11 36  1  0  0  0  0
 11 37  1  0  0  0  0
 12 37  1  0  0  0  0
 12 44  1  0  0  0  0
 13 33  1  0  0  0  0
 13 84  1  0  0  0  0
 14 34  1  0  0  0  0
 14 85  1  0  0  0  0
 15 35  1  0  0  0  0
 15 86  1  0  0  0  0
 16 40  1  0  0  0  0
 16 43  1  0  0  0  0
 17 41  2  0  0  0  0
 18 47  1  0  0  0  0
 18 94  1  0  0  0  0
 19 45  2  0  0  0  0
 20 55  1  0  0  0  0
 20 97  1  0  0  0  0
 21 22  1  0  0  0  0
 21 25  1  0  0  0  0
 21 56  1  0  0  0  0
 22 23  1  0  0  0  0
 22 57  1  0  0  0  0
 23 26  1  0  0  0  0
 23 58  1  0  0  0  0
 24 27  1  0  0  0  0
 24 59  1  0  0  0  0
 25 60  1  0  0  0  0
 26 31  1  0  0  0  0
 26 61  1  0  0  0  0
 27 28  1  0  0  0  0
 27 62  1  0  0  0  0
 28 29  1  0  0  0  0
 28 63  1  0  0  0  0
 29 30  1  0  0  0  0
 29 64  1  0  0  0  0
 30 32  1  0  0  0  0
 30 65  1  0  0  0  0
 31 66  1  0  0  0  0
 31 67  1  0  0  0  0
 32 68  1  0  0  0  0
 32 69  1  0  0  0  0
 32 70  1  0  0  0  0
 33 34  1  0  0  0  0
 33 35  1  0  0  0  0
 33 73  1  0  0  0  0
 34 36  1  0  0  0  0
 34 74  1  0  0  0  0
 35 37  1  0  0  0  0
 35 76  1  0  0  0  0
 36 39  1  0  0  0  0
 36 77  1  0  0  0  0
 37 80  1  0  0  0  0
 38 40  2  0  0  0  0
 38 41  1  0  0  0  0
 39 81  1  0  0  0  0
 39 82  1  0  0  0  0
 39 83  1  0  0  0  0
 40 48  1  0  0  0  0
 41 42  1  0  0  0  0
 42 43  1  0  0  0  0
 42 47  2  0  0  0  0
 43 46  2  0  0  0  0
 44 46  1  0  0  0  0
 44 49  2  0  0  0  0
 45 50  1  0  0  0  0
 46 87  1  0  0  0  0
 47 49  1  0  0  0  0
 48 51  2  0  0  0  0
 48 52  1  0  0  0  0
 49 88  1  0  0  0  0
 50 89  1  0  0  0  0
 50 90  1  0  0  0  0
 50 91  1  0  0  0  0
 51 53  1  0  0  0  0
 51 92  1  0  0  0  0
 52 54  2  0  0  0  0
 52 93  1  0  0  0  0
 53 55  2  0  0  0  0
 53 95  1  0  0  0  0
 54 55  1  0  0  0  0
 54 96  1  0  0  0  0
M  END
>  <PUBCHEM_COMPOUND_CID>
14353451

>  <PUBCHEM_COMPOUND_CANONICALIZED>
1

>  <PUBCHEM_CACTVS_COMPLEXITY>
1370

>  <PUBCHEM_CACTVS_HBOND_ACCEPTOR>
20

>  <PUBCHEM_CACTVS_HBOND_DONOR>
10

>  <PUBCHEM_CACTVS_ROTATABLE_BOND>
10

>  <PUBCHEM_CACTVS_SUBSKEYS>
AAADcfB8PgAAAAAAAAAAAAAAAAAAAAAAAAA0aJECAAAAAACBQAAAGgAACAAADBSwmAMyDoAABgCIAqDSCAICCAAkIAAIiAFGCMgdNzaGNR6ieWCl4BUPuQfI7KzOIAAACAAIAABAAAAQABAAAAAAAAAAAA==

>  <PUBCHEM_IUPAC_OPENEYE_NAME>
[3,4-dihydroxy-6-[5-hydroxy-2-(4-hydroxyphenyl)-4-oxo-7-(3,4,5-trihydroxy-6-methyl-tetrahydropyran-2-yl)oxy-chromen-3-yl]oxy-5-(3,4,5-trihydroxy-6-methyl-tetrahydropyran-2-yl)oxy-tetrahydropyran-2-yl]methyl acetate

>  <PUBCHEM_IUPAC_CAS_NAME>
acetic acid [3,4-dihydroxy-6-[[5-hydroxy-2-(4-hydroxyphenyl)-4-oxo-7-[(3,4,5-trihydroxy-6-methyl-2-oxanyl)oxy]-1-benzopyran-3-yl]oxy]-5-[(3,4,5-trihydroxy-6-methyl-2-oxanyl)oxy]-2-oxanyl]methyl ester

>  <PUBCHEM_IUPAC_NAME_MARKUP>
[3,4-dihydroxy-6-[5-hydroxy-2-(4-hydroxyphenyl)-4-oxo-7-(3,4,5-trihydroxy-6-methyloxan-2-yl)oxychromen-3-yl]oxy-5-(3,4,5-trihydroxy-6-methyloxan-2-yl)oxyoxan-2-yl]methyl acetate

>  <PUBCHEM_IUPAC_NAME>
[3,4-dihydroxy-6-[5-hydroxy-2-(4-hydroxyphenyl)-4-oxo-7-(3,4,5-trihydroxy-6-methyloxan-2-yl)oxychromen-3-yl]oxy-5-(3,4,5-trihydroxy-6-methyloxan-2-yl)oxyoxan-2-yl]methyl acetate

>  <PUBCHEM_IUPAC_SYSTEMATIC_NAME>
[6-[2-(4-hydroxyphenyl)-7-[6-methyl-3,4,5-tris(oxidanyl)oxan-2-yl]oxy-5-oxidanyl-4-oxidanylidene-chromen-3-yl]oxy-5-[6-methyl-3,4,5-tris(oxidanyl)oxan-2-yl]oxy-3,4-bis(oxidanyl)oxan-2-yl]methyl ethanoate

>  <PUBCHEM_IUPAC_TRADITIONAL_NAME>
acetic acid [3,4-dihydroxy-6-[5-hydroxy-2-(4-hydroxyphenyl)-4-keto-7-(3,4,5-trihydroxy-6-methyl-tetrahydropyran-2-yl)oxy-chromen-3-yl]oxy-5-(3,4,5-trihydroxy-6-methyl-tetrahydropyran-2-yl)oxy-tetrahydropyran-2-yl]methyl ester

>  <PUBCHEM_IUPAC_INCHI>
InChI=1S/C35H42O20/c1-11-21(39)25(43)28(46)33(49-11)51-16-8-17(38)20-18(9-16)52-30(14-4-6-15(37)7-5-14)31(24(20)42)54-35-32(27(45)23(41)19(53-35)10-48-13(3)36)55-34-29(47)26(44)22(40)12(2)50-34/h4-9,11-12,19,21-23,25-29,32-35,37-41,43-47H,10H2,1-3H3

>  <PUBCHEM_IUPAC_INCHIKEY>
PWWMGQJEFDUFKG-UHFFFAOYSA-N

>  <PUBCHEM_XLOGP3_AA>
-1.7

>  <PUBCHEM_EXACT_MASS>
782.22694372

>  <PUBCHEM_MOLECULAR_FORMULA>
C35H42O20

>  <PUBCHEM_MOLECULAR_WEIGHT>
782.7

>  <PUBCHEM_SMILES>
CC1C(C(C(C(O1)OC2C(C(C(OC2OC3=C(OC4=CC(=CC(=C4C3=O)O)OC5C(C(C(C(O5)C)O)O)O)C6=CC=C(C=C6)O)COC(=O)C)O)O)O)O)O

>  <PUBCHEM_OPENEYE_CAN_SMILES>
CC1C(C(C(C(O1)OC2C(C(C(OC2OC3=C(OC4=CC(=CC(=C4C3=O)O)OC5C(C(C(C(O5)C)O)O)O)C6=CC=C(C=C6)O)COC(=O)C)O)O)O)O)O

>  <PUBCHEM_OPENEYE_ISO_SMILES>
CC1C(C(C(C(O1)OC2C(C(C(OC2OC3=C(OC4=CC(=CC(=C4C3=O)O)OC5C(C(C(C(O5)C)O)O)O)C6=CC=C(C=C6)O)COC(=O)C)O)O)O)O)O

>  <PUBCHEM_CACTVS_TPSA>
310

>  <PUBCHEM_MONOISOTOPIC_WEIGHT>
782.22694372

>  <PUBCHEM_TOTAL_CHARGE>
0

>  <PUBCHEM_HEAVY_ATOM_COUNT>
55

>  <PUBCHEM_ATOM_DEF_STEREO_COUNT>
0

>  <PUBCHEM_ATOM_UDEF_STEREO_COUNT>
15

>  <PUBCHEM_BOND_DEF_STEREO_COUNT>
0

>  <PUBCHEM_BOND_UDEF_STEREO_COUNT>
0

>  <PUBCHEM_ISOTOPIC_ATOM_COUNT>
0

>  <PUBCHEM_COMPONENT_COUNT>
1

>  <PUBCHEM_CACTVS_TAUTO_COUNT>
-1

>  <PUBCHEM_COORDINATE_TYPE>
1
5
255

>  <PUBCHEM_BONDANNOTATIONS>
21  1  3
24  1  3
37  12  3
33  13  3
34  14  3
35  15  3
16  40  8
16  43  8
26  31  3
30  32  3
36  39  3
38  40  8
38  41  8
25  4  3
41  42  8
42  43  8
42  47  8
43  46  8
44  46  8
44  49  8
47  49  8
48  51  8
48  52  8
22  5  3
51  53  8
52  54  8
53  55  8
54  55  8
23  6  3
27  7  3
28  8  3
29  9  3

$$$$
