21596147
 OpenBabel06082519392D

 41 42  0  0  0  0  0  0  0  0999 V2000
    2.8660   -1.3450    0.0000 O   0  0  0  0  0  0  0  0  0  0  0  0
    7.1962    4.1550    0.0000 O   0  0  0  0  0  0  0  0  0  0  0  0
    8.9282    3.1550    0.0000 O   0  0  0  0  0  0  0  0  0  0  0  0
    4.5981   -4.3450    0.0000 O   0  0  0  0  0  0  0  0  0  0  0  0
    5.4641    0.1550    0.0000 C   0  0  0  0  0  0  0  0  0  0  0  0
    4.5981   -0.3450    0.0000 C   0  0  0  0  0  0  0  0  0  0  0  0
    5.4641    1.1550    0.0000 C   0  0  0  0  0  0  0  0  0  0  0  0
    4.5981   -1.3450    0.0000 C   0  0  0  0  0  0  0  0  0  0  0  0
    6.3301    1.6550    0.0000 C   0  0  0  0  0  0  0  0  0  0  0  0
    3.7320   -1.8450    0.0000 C   0  0  0  0  0  0  0  0  0  0  0  0
    6.3301    2.6550    0.0000 C   0  0  0  0  0  0  0  0  0  0  0  0
    5.4641   -1.8450    0.0000 C   0  0  0  0  0  0  0  0  0  0  0  0
    7.1962    1.1550    0.0000 C   0  0  0  0  0  0  0  0  0  0  0  0
    7.1962    3.1550    0.0000 C   0  0  0  0  0  0  0  0  0  0  0  0
    3.7320   -2.8450    0.0000 C   0  0  0  0  0  0  0  0  0  0  0  0
    5.4641   -2.8450    0.0000 C   0  0  0  0  0  0  0  0  0  0  0  0
    8.0622    1.6550    0.0000 C   0  0  0  0  0  0  0  0  0  0  0  0
    8.0622    2.6550    0.0000 C   0  0  0  0  0  0  0  0  0  0  0  0
    4.5981   -3.3450    0.0000 C   0  0  0  0  0  0  0  0  0  0  0  0
    2.0000   -1.8450    0.0000 C   0  0  0  0  0  0  0  0  0  0  0  0
    6.3301    4.6550    0.0000 C   0  0  0  0  0  0  0  0  0  0  0  0
    5.6762   -0.4276    0.0000 H   0  0  0  0  0  0  0  0  0  0  0  0
    6.0747    0.2627    0.0000 H   0  0  0  0  0  0  0  0  0  0  0  0
    4.3860    0.2376    0.0000 H   0  0  0  0  0  0  0  0  0  0  0  0
    3.9875   -0.4527    0.0000 H   0  0  0  0  0  0  0  0  0  0  0  0
    5.2520    1.7376    0.0000 H   0  0  0  0  0  0  0  0  0  0  0  0
    4.8535    1.0473    0.0000 H   0  0  0  0  0  0  0  0  0  0  0  0
    5.7932    2.9650    0.0000 H   0  0  0  0  0  0  0  0  0  0  0  0
    6.0010   -1.5350    0.0000 H   0  0  0  0  0  0  0  0  0  0  0  0
    7.1962    0.5350    0.0000 H   0  0  0  0  0  0  0  0  0  0  0  0
    3.1951   -3.1550    0.0000 H   0  0  0  0  0  0  0  0  0  0  0  0
    6.0010   -3.1550    0.0000 H   0  0  0  0  0  0  0  0  0  0  0  0
    8.5991    1.3450    0.0000 H   0  0  0  0  0  0  0  0  0  0  0  0
    1.6900   -1.3081    0.0000 H   0  0  0  0  0  0  0  0  0  0  0  0
    1.4631   -2.1550    0.0000 H   0  0  0  0  0  0  0  0  0  0  0  0
    2.3100   -2.3819    0.0000 H   0  0  0  0  0  0  0  0  0  0  0  0
    9.4651    2.8450    0.0000 H   0  0  0  0  0  0  0  0  0  0  0  0
    5.1350   -4.6550    0.0000 H   0  0  0  0  0  0  0  0  0  0  0  0
    6.6401    5.1919    0.0000 H   0  0  0  0  0  0  0  0  0  0  0  0
    5.7932    4.9650    0.0000 H   0  0  0  0  0  0  0  0  0  0  0  0
    6.0201    4.1181    0.0000 H   0  0  0  0  0  0  0  0  0  0  0  0
  1 10  1  0  0  0  0
  1 20  1  0  0  0  0
  2 14  1  0  0  0  0
  2 21  1  0  0  0  0
  3 18  1  0  0  0  0
  3 37  1  0  0  0  0
  4 19  1  0  0  0  0
  4 38  1  0  0  0  0
  5  6  1  0  0  0  0
  5  7  1  0  0  0  0
  5 22  1  0  0  0  0
  5 23  1  0  0  0  0
  6  8  1  0  0  0  0
  6 24  1  0  0  0  0
  6 25  1  0  0  0  0
  7  9  1  0  0  0  0
  7 26  1  0  0  0  0
  7 27  1  0  0  0  0
  8 10  2  0  0  0  0
  8 12  1  0  0  0  0
  9 11  2  0  0  0  0
  9 13  1  0  0  0  0
 10 15  1  0  0  0  0
 11 14  1  0  0  0  0
 11 28  1  0  0  0  0
 12 16  2  0  0  0  0
 12 29  1  0  0  0  0
 13 17  2  0  0  0  0
 13 30  1  0  0  0  0
 14 18  2  0  0  0  0
 15 19  2  0  0  0  0
 15 31  1  0  0  0  0
 16 19  1  0  0  0  0
 16 32  1  0  0  0  0
 17 18  1  0  0  0  0
 17 33  1  0  0  0  0
 20 34  1  0  0  0  0
 20 35  1  0  0  0  0
 20 36  1  0  0  0  0
 21 39  1  0  0  0  0
 21 40  1  0  0  0  0
 21 41  1  0  0  0  0
M  END
>  <PUBCHEM_COMPOUND_CID>
21596147

>  <PUBCHEM_COMPOUND_CANONICALIZED>
1

>  <PUBCHEM_CACTVS_COMPLEXITY>
297

>  <PUBCHEM_CACTVS_HBOND_ACCEPTOR>
4

>  <PUBCHEM_CACTVS_HBOND_DONOR>
2

>  <PUBCHEM_CACTVS_ROTATABLE_BOND>
6

>  <PUBCHEM_CACTVS_SUBSKEYS>
AAADceB4OAAAAAAAAAAAAAAAAAAAAAAAAAAwYAAAAAAAAAABQAAAGgAACAAADASAmAIyBoAABgCAAiBCAAACCAAgIAAIiAAGiIgNJyKGMRqAcCMlwBULuAeA4PwOIAABCAAIQABAAAIQABCAAAAAAAAAAA==

>  <PUBCHEM_IUPAC_OPENEYE_NAME>
4-[3-(4-hydroxy-2-methoxy-phenyl)propyl]-2-methoxy-phenol

>  <PUBCHEM_IUPAC_CAS_NAME>
4-[3-(4-hydroxy-2-methoxyphenyl)propyl]-2-methoxyphenol

>  <PUBCHEM_IUPAC_NAME_MARKUP>
4-[3-(4-hydroxy-2-methoxyphenyl)propyl]-2-methoxyphenol

>  <PUBCHEM_IUPAC_NAME>
4-[3-(4-hydroxy-2-methoxyphenyl)propyl]-2-methoxyphenol

>  <PUBCHEM_IUPAC_SYSTEMATIC_NAME>
2-methoxy-4-[3-(2-methoxy-4-oxidanyl-phenyl)propyl]phenol

>  <PUBCHEM_IUPAC_TRADITIONAL_NAME>
4-[3-(4-hydroxy-2-methoxy-phenyl)propyl]-2-methoxy-phenol

>  <PUBCHEM_IUPAC_INCHI>
InChI=1S/C17H20O4/c1-20-16-11-14(18)8-7-13(16)5-3-4-12-6-9-15(19)17(10-12)21-2/h6-11,18-19H,3-5H2,1-2H3

>  <PUBCHEM_IUPAC_INCHIKEY>
DWDSYTBAOIEKLG-UHFFFAOYSA-N

>  <PUBCHEM_XLOGP3_AA>
3.9

>  <PUBCHEM_EXACT_MASS>
288.13615911

>  <PUBCHEM_MOLECULAR_FORMULA>
C17H20O4

>  <PUBCHEM_MOLECULAR_WEIGHT>
288.34

>  <PUBCHEM_SMILES>
COC1=C(C=CC(=C1)CCCC2=C(C=C(C=C2)O)OC)O

>  <PUBCHEM_OPENEYE_CAN_SMILES>
COC1=C(C=CC(=C1)CCCC2=C(C=C(C=C2)O)OC)O

>  <PUBCHEM_OPENEYE_ISO_SMILES>
COC1=C(C=CC(=C1)CCCC2=C(C=C(C=C2)O)OC)O

>  <PUBCHEM_CACTVS_TPSA>
58.9

>  <PUBCHEM_MONOISOTOPIC_WEIGHT>
288.13615911

>  <PUBCHEM_TOTAL_CHARGE>
0

>  <PUBCHEM_HEAVY_ATOM_COUNT>
21

>  <PUBCHEM_ATOM_DEF_STEREO_COUNT>
0

>  <PUBCHEM_ATOM_UDEF_STEREO_COUNT>
0

>  <PUBCHEM_BOND_DEF_STEREO_COUNT>
0

>  <PUBCHEM_BOND_UDEF_STEREO_COUNT>
0

>  <PUBCHEM_ISOTOPIC_ATOM_COUNT>
0

>  <PUBCHEM_COMPONENT_COUNT>
1

>  <PUBCHEM_CACTVS_TAUTO_COUNT>
-1

>  <PUBCHEM_COORDINATE_TYPE>
1
5
255

>  <PUBCHEM_BONDANNOTATIONS>
10  15  8
11  14  8
12  16  8
13  17  8
14  18  8
15  19  8
16  19  8
17  18  8
8  10  8
8  12  8
9  11  8
9  13  8

$$$$
