23760102
 OpenBabel06082519392D

 84 88  0  0  1  0  0  0  0  0999 V2000
    7.8831    0.7071    0.0000 O   0  0  0  0  0  0  0  0  0  0  0  0
    9.2242   -0.6340    0.0000 O   0  0  0  0  0  0  0  0  0  0  0  0
    6.1511    0.7071    0.0000 O   0  0  0  0  0  0  0  0  0  0  0  0
    9.2242   -2.3660    0.0000 O   0  0  0  0  0  0  0  0  0  0  0  0
    3.3100    0.2321    0.0000 O   0  0  0  0  0  0  0  0  0  0  0  0
    5.2851   -5.2071    0.0000 O   0  0  0  0  0  0  0  0  0  0  0  0
    2.3100   -1.5000    0.0000 O   0  0  0  0  0  0  0  0  0  0  0  0
    7.0171   -6.2071    0.0000 O   0  0  0  0  0  0  0  0  0  0  0  0
    7.0171    3.2071    0.0000 O   0  0  0  0  0  0  0  0  0  0  0  0
   11.7242   -1.5000    0.0000 O   0  0  0  0  0  0  0  0  0  0  0  0
    6.1511    1.7071    0.0000 O   0  0  0  0  0  0  0  0  0  0  0  0
   10.2242   -2.3660    0.0000 O   0  0  0  0  0  0  0  0  0  0  0  0
    7.0171    5.2071    0.0000 O   0  0  0  0  0  0  0  0  0  0  0  0
   13.7242   -1.5000    0.0000 O   0  0  0  0  0  0  0  0  0  0  0  0
    8.7492    6.2071    0.0000 O   0  0  0  0  0  0  0  0  0  0  0  0
   14.7242    0.2321    0.0000 O   0  0  0  0  0  0  0  0  0  0  0  0
    6.3100   -1.5000    0.0000 C   0  0  3  0  0  0  0  0  0  0  0  0
    7.0171   -2.2071    0.0000 C   0  0  3  0  0  0  0  0  0  0  0  0
    7.0171   -0.7929    0.0000 C   0  0  3  0  0  0  0  0  0  0  0  0
    7.7242   -1.5000    0.0000 C   0  0  3  0  0  0  0  0  0  0  0  0
    5.3100   -1.5000    0.0000 C   0  0  0  0  0  0  0  0  0  0  0  0
    7.0171   -3.2071    0.0000 C   0  0  0  0  0  0  0  0  0  0  0  0
    7.0171    0.2071    0.0000 C   0  0  0  0  0  0  0  0  0  0  0  0
    8.7242   -1.5000    0.0000 C   0  0  0  0  0  0  0  0  0  0  0  0
    4.8100   -0.6340    0.0000 C   0  0  0  0  0  0  0  0  0  0  0  0
    6.1511   -3.7071    0.0000 C   0  0  0  0  0  0  0  0  0  0  0  0
    4.8100   -2.3660    0.0000 C   0  0  0  0  0  0  0  0  0  0  0  0
    7.8831   -3.7071    0.0000 C   0  0  0  0  0  0  0  0  0  0  0  0
    3.8100   -0.6340    0.0000 C   0  0  0  0  0  0  0  0  0  0  0  0
    6.1511   -4.7071    0.0000 C   0  0  0  0  0  0  0  0  0  0  0  0
    3.8100   -2.3660    0.0000 C   0  0  0  0  0  0  0  0  0  0  0  0
    7.8831   -4.7071    0.0000 C   0  0  0  0  0  0  0  0  0  0  0  0
    7.8831    1.7071    0.0000 C   0  0  3  0  0  0  0  0  0  0  0  0
   10.2242   -0.6340    0.0000 C   0  0  3  0  0  0  0  0  0  0  0  0
    3.3100   -1.5000    0.0000 C   0  0  0  0  0  0  0  0  0  0  0  0
    7.0171   -5.2071    0.0000 C   0  0  0  0  0  0  0  0  0  0  0  0
    8.7492    2.2071    0.0000 C   0  0  0  0  0  0  0  0  0  0  0  0
   10.7242    0.2321    0.0000 C   0  0  0  0  0  0  0  0  0  0  0  0
    7.0171    2.2071    0.0000 C   0  0  0  0  0  0  0  0  0  0  0  0
   10.7242   -1.5000    0.0000 C   0  0  0  0  0  0  0  0  0  0  0  0
    8.7492    3.2071    0.0000 C   0  0  0  0  0  0  0  0  0  0  0  0
   11.7242    0.2321    0.0000 C   0  0  0  0  0  0  0  0  0  0  0  0
    7.8831    3.7071    0.0000 C   0  0  0  0  0  0  0  0  0  0  0  0
   12.2242   -0.6340    0.0000 C   0  0  0  0  0  0  0  0  0  0  0  0
    9.6152    3.7071    0.0000 C   0  0  0  0  0  0  0  0  0  0  0  0
   12.2242    1.0981    0.0000 C   0  0  0  0  0  0  0  0  0  0  0  0
    7.8831    4.7071    0.0000 C   0  0  0  0  0  0  0  0  0  0  0  0
   13.2242   -0.6340    0.0000 C   0  0  0  0  0  0  0  0  0  0  0  0
    9.6152    4.7071    0.0000 C   0  0  0  0  0  0  0  0  0  0  0  0
   13.2242    1.0981    0.0000 C   0  0  0  0  0  0  0  0  0  0  0  0
    8.7492    5.2071    0.0000 C   0  0  0  0  0  0  0  0  0  0  0  0
   13.7242    0.2321    0.0000 C   0  0  0  0  0  0  0  0  0  0  0  0
    6.0727   -0.9272    0.0000 H   0  0  0  0  0  0  0  0  0  0  0  0
    7.5899   -2.4444    0.0000 H   0  0  0  0  0  0  0  0  0  0  0  0
    7.5899   -0.5556    0.0000 H   0  0  0  0  0  0  0  0  0  0  0  0
    7.9615   -0.9272    0.0000 H   0  0  0  0  0  0  0  0  0  0  0  0
    5.1200   -0.0970    0.0000 H   0  0  0  0  0  0  0  0  0  0  0  0
    5.6142   -3.3971    0.0000 H   0  0  0  0  0  0  0  0  0  0  0  0
    5.1200   -2.9030    0.0000 H   0  0  0  0  0  0  0  0  0  0  0  0
    8.4201   -3.3971    0.0000 H   0  0  0  0  0  0  0  0  0  0  0  0
    3.5000   -2.9030    0.0000 H   0  0  0  0  0  0  0  0  0  0  0  0
    8.4201   -5.0171    0.0000 H   0  0  0  0  0  0  0  0  0  0  0  0
    7.3462    1.3971    0.0000 H   0  0  0  0  0  0  0  0  0  0  0  0
    9.9142   -1.1709    0.0000 H   0  0  0  0  0  0  0  0  0  0  0  0
    8.9612    1.6245    0.0000 H   0  0  0  0  0  0  0  0  0  0  0  0
    9.3597    2.3148    0.0000 H   0  0  0  0  0  0  0  0  0  0  0  0
   10.8319    0.8426    0.0000 H   0  0  0  0  0  0  0  0  0  0  0  0
   10.1416    0.4441    0.0000 H   0  0  0  0  0  0  0  0  0  0  0  0
    2.6900    0.2321    0.0000 H   0  0  0  0  0  0  0  0  0  0  0  0
    5.2851   -5.8271    0.0000 H   0  0  0  0  0  0  0  0  0  0  0  0
    2.0000   -2.0369    0.0000 H   0  0  0  0  0  0  0  0  0  0  0  0
    7.5540   -6.5171    0.0000 H   0  0  0  0  0  0  0  0  0  0  0  0
    6.4802    3.5171    0.0000 H   0  0  0  0  0  0  0  0  0  0  0  0
   12.0342   -2.0369    0.0000 H   0  0  0  0  0  0  0  0  0  0  0  0
    7.3462    3.3971    0.0000 H   0  0  0  0  0  0  0  0  0  0  0  0
   11.9142   -1.1709    0.0000 H   0  0  0  0  0  0  0  0  0  0  0  0
   10.1521    3.3971    0.0000 H   0  0  0  0  0  0  0  0  0  0  0  0
   11.9142    1.6350    0.0000 H   0  0  0  0  0  0  0  0  0  0  0  0
   10.1521    5.0171    0.0000 H   0  0  0  0  0  0  0  0  0  0  0  0
   13.5342    1.6350    0.0000 H   0  0  0  0  0  0  0  0  0  0  0  0
    7.0171    5.8271    0.0000 H   0  0  0  0  0  0  0  0  0  0  0  0
   14.3442   -1.5000    0.0000 H   0  0  0  0  0  0  0  0  0  0  0  0
    9.2861    6.5171    0.0000 H   0  0  0  0  0  0  0  0  0  0  0  0
   15.0342    0.7690    0.0000 H   0  0  0  0  0  0  0  0  0  0  0  0
  1 23  1  0  0  0  0
  1 33  1  0  0  0  0
  2 24  1  0  0  0  0
  2 34  1  0  0  0  0
  3 23  2  0  0  0  0
  4 24  2  0  0  0  0
  5 29  1  0  0  0  0
  5 69  1  0  0  0  0
  6 30  1  0  0  0  0
  6 70  1  0  0  0  0
  7 35  1  0  0  0  0
  7 71  1  0  0  0  0
  8 36  1  0  0  0  0
  8 72  1  0  0  0  0
  9 39  1  0  0  0  0
  9 73  1  0  0  0  0
 10 40  1  0  0  0  0
 10 74  1  0  0  0  0
 11 39  2  0  0  0  0
 12 40  2  0  0  0  0
 13 47  1  0  0  0  0
 13 81  1  0  0  0  0
 14 48  1  0  0  0  0
 14 82  1  0  0  0  0
 15 51  1  0  0  0  0
 15 83  1  0  0  0  0
 16 52  1  0  0  0  0
 16 84  1  0  0  0  0
 17 18  1  0  0  0  0
 17 19  1  0  0  0  0
 17 21  1  0  0  0  0
 17 53  1  0  0  0  0
 18 20  1  0  0  0  0
 18 22  1  0  0  0  0
 18 54  1  0  0  0  0
 19 20  1  0  0  0  0
 19 23  1  0  0  0  0
 19 55  1  0  0  0  0
 20 24  1  0  0  0  0
 20 56  1  0  0  0  0
 21 25  2  0  0  0  0
 21 27  1  0  0  0  0
 22 26  2  0  0  0  0
 22 28  1  0  0  0  0
 25 29  1  0  0  0  0
 25 57  1  0  0  0  0
 26 30  1  0  0  0  0
 26 58  1  0  0  0  0
 27 31  2  0  0  0  0
 27 59  1  0  0  0  0
 28 32  2  0  0  0  0
 28 60  1  0  0  0  0
 29 35  2  0  0  0  0
 30 36  2  0  0  0  0
 31 35  1  0  0  0  0
 31 61  1  0  0  0  0
 32 36  1  0  0  0  0
 32 62  1  0  0  0  0
 33 37  1  0  0  0  0
 33 39  1  0  0  0  0
 33 63  1  0  0  0  0
 34 38  1  0  0  0  0
 34 40  1  0  0  0  0
 34 64  1  0  0  0  0
 37 41  1  0  0  0  0
 37 65  1  0  0  0  0
 37 66  1  0  0  0  0
 38 42  1  0  0  0  0
 38 67  1  0  0  0  0
 38 68  1  0  0  0  0
 41 43  2  0  0  0  0
 41 45  1  0  0  0  0
 42 44  2  0  0  0  0
 42 46  1  0  0  0  0
 43 47  1  0  0  0  0
 43 75  1  0  0  0  0
 44 48  1  0  0  0  0
 44 76  1  0  0  0  0
 45 49  2  0  0  0  0
 45 77  1  0  0  0  0
 46 50  2  0  0  0  0
 46 78  1  0  0  0  0
 47 51  2  0  0  0  0
 48 52  2  0  0  0  0
 49 51  1  0  0  0  0
 49 79  1  0  0  0  0
 50 52  1  0  0  0  0
 50 80  1  0  0  0  0
M  END
>  <PUBCHEM_COMPOUND_CID>
23760102

>  <PUBCHEM_COMPOUND_CANONICALIZED>
1

>  <PUBCHEM_CACTVS_COMPLEXITY>
1170

>  <PUBCHEM_CACTVS_HBOND_ACCEPTOR>
16

>  <PUBCHEM_CACTVS_HBOND_DONOR>
10

>  <PUBCHEM_CACTVS_ROTATABLE_BOND>
14

>  <PUBCHEM_CACTVS_SUBSKEYS>
AAADcfB8PgAAAAAAAAAAAAAAAABgAAAAAAAwYMGAAAAAAAABVAAAGgAACAAADRSgmAIwDoAABgCIAiDSCAICAAAgIAAIiAFGiIgJJjKCERaCcAEkwBELmAfL6PyOoAABAAAAQABAAAIAAACAAAAAAAAAAA==

>  <PUBCHEM_IUPAC_OPENEYE_NAME>
2-[2-[1-carboxy-2-(3,4-dihydroxyphenyl)ethoxy]carbonyl-3,4-bis(3,4-dihydroxyphenyl)cyclobutanecarbonyl]oxy-3-(3,4-dihydroxyphenyl)propanoic acid

>  <PUBCHEM_IUPAC_CAS_NAME>
2-[[2-[[1-carboxy-2-(3,4-dihydroxyphenyl)ethoxy]-oxomethyl]-3,4-bis(3,4-dihydroxyphenyl)cyclobutyl]-oxomethoxy]-3-(3,4-dihydroxyphenyl)propanoic acid

>  <PUBCHEM_IUPAC_NAME_MARKUP>
2-[2-[1-carboxy-2-(3,4-dihydroxyphenyl)ethoxy]carbonyl-3,4-bis(3,4-dihydroxyphenyl)cyclobutanecarbonyl]oxy-3-(3,4-dihydroxyphenyl)propanoic acid

>  <PUBCHEM_IUPAC_NAME>
2-[2-[1-carboxy-2-(3,4-dihydroxyphenyl)ethoxy]carbonyl-3,4-bis(3,4-dihydroxyphenyl)cyclobutanecarbonyl]oxy-3-(3,4-dihydroxyphenyl)propanoic acid

>  <PUBCHEM_IUPAC_SYSTEMATIC_NAME>
2-[2,3-bis[3,4-bis(oxidanyl)phenyl]-4-[3-[3,4-bis(oxidanyl)phenyl]-1-oxidanyl-1-oxidanylidene-propan-2-yl]oxycarbonyl-cyclobutyl]carbonyloxy-3-[3,4-bis(oxidanyl)phenyl]propanoic acid

>  <PUBCHEM_IUPAC_TRADITIONAL_NAME>
2-[2-[1-carboxy-2-(3,4-dihydroxyphenyl)ethoxy]carbonyl-3,4-bis(3,4-dihydroxyphenyl)cyclobutanecarbonyl]oxy-3-(3,4-dihydroxyphenyl)propionic acid

>  <PUBCHEM_IUPAC_INCHI>
InChI=1S/C36H32O16/c37-19-5-1-15(9-23(19)41)11-27(33(45)46)51-35(49)31-29(17-3-7-21(39)25(43)13-17)30(18-4-8-22(40)26(44)14-18)32(31)36(50)52-28(34(47)48)12-16-2-6-20(38)24(42)10-16/h1-10,13-14,27-32,37-44H,11-12H2,(H,45,46)(H,47,48)

>  <PUBCHEM_IUPAC_INCHIKEY>
SUYLTDFWHNXGDX-UHFFFAOYSA-N

>  <PUBCHEM_XLOGP3_AA>
3.5

>  <PUBCHEM_EXACT_MASS>
720.16903493

>  <PUBCHEM_MOLECULAR_FORMULA>
C36H32O16

>  <PUBCHEM_MOLECULAR_WEIGHT>
720.6

>  <PUBCHEM_SMILES>
C1=CC(=C(C=C1CC(C(=O)O)OC(=O)C2C(C(C2C(=O)OC(CC3=CC(=C(C=C3)O)O)C(=O)O)C4=CC(=C(C=C4)O)O)C5=CC(=C(C=C5)O)O)O)O

>  <PUBCHEM_OPENEYE_CAN_SMILES>
C1=CC(=C(C=C1CC(C(=O)O)OC(=O)C2C(C(C2C(=O)OC(CC3=CC(=C(C=C3)O)O)C(=O)O)C4=CC(=C(C=C4)O)O)C5=CC(=C(C=C5)O)O)O)O

>  <PUBCHEM_OPENEYE_ISO_SMILES>
C1=CC(=C(C=C1CC(C(=O)O)OC(=O)C2C(C(C2C(=O)OC(CC3=CC(=C(C=C3)O)O)C(=O)O)C4=CC(=C(C=C4)O)O)C5=CC(=C(C=C5)O)O)O)O

>  <PUBCHEM_CACTVS_TPSA>
289

>  <PUBCHEM_MONOISOTOPIC_WEIGHT>
720.16903493

>  <PUBCHEM_TOTAL_CHARGE>
0

>  <PUBCHEM_HEAVY_ATOM_COUNT>
52

>  <PUBCHEM_ATOM_DEF_STEREO_COUNT>
0

>  <PUBCHEM_ATOM_UDEF_STEREO_COUNT>
6

>  <PUBCHEM_BOND_DEF_STEREO_COUNT>
0

>  <PUBCHEM_BOND_UDEF_STEREO_COUNT>
0

>  <PUBCHEM_ISOTOPIC_ATOM_COUNT>
0

>  <PUBCHEM_COMPONENT_COUNT>
1

>  <PUBCHEM_CACTVS_TAUTO_COUNT>
-1

>  <PUBCHEM_COORDINATE_TYPE>
1
5
255

>  <PUBCHEM_BONDANNOTATIONS>
17  21  3
18  22  3
19  23  3
20  24  3
21  25  8
21  27  8
22  26  8
22  28  8
25  29  8
26  30  8
27  31  8
28  32  8
29  35  8
30  36  8
31  35  8
32  36  8
33  37  3
34  38  3
41  43  8
41  45  8
42  44  8
42  46  8
43  47  8
44  48  8
45  49  8
46  50  8
47  51  8
48  52  8
49  51  8
50  52  8

$$$$
