3084119
 OpenBabel06082519392D

115122  0  0  1  0  0  0  0  0999 V2000
    8.6192    6.0374    0.0000 O   0  0  0  0  0  0  0  0  0  0  0  0
    5.4934    3.9836    0.0000 O   0  0  0  0  0  0  0  0  0  0  0  0
    6.8468    6.9322    0.0000 O   0  0  0  0  0  0  0  0  0  0  0  0
    7.1962   -2.2066    0.0000 O   0  0  0  0  0  0  0  0  0  0  0  0
    5.3888   -1.1538    0.0000 O   0  0  0  0  0  0  0  0  0  0  0  0
    5.4641   -2.2066    0.0000 O   0  0  0  0  0  0  0  0  0  0  0  0
    7.1962   -4.2066    0.0000 O   0  0  0  0  0  0  0  0  0  0  0  0
    5.4641   -5.2066    0.0000 O   0  0  0  0  0  0  0  0  0  0  0  0
    3.7321   -4.2066    0.0000 O   0  0  0  0  0  0  0  0  0  0  0  0
    3.7321   -1.2066    0.0000 O   0  0  0  0  0  0  0  0  0  0  0  0
    4.5981   -5.7066    0.0000 O   0  0  0  0  0  0  0  0  0  0  0  0
    2.0000   -5.2066    0.0000 O   0  0  0  0  0  0  0  0  0  0  0  0
    2.0000   -7.2066    0.0000 O   0  0  0  0  0  0  0  0  0  0  0  0
    3.7321   -8.2066    0.0000 O   0  0  0  0  0  0  0  0  0  0  0  0
    6.3301   -6.7066    0.0000 O   0  0  0  0  0  0  0  0  0  0  0  0
    7.2254    3.9902    0.0000 C   0  0  1  0  0  0  0  0  0  0  0  0
    8.0934    3.4936    0.0000 C   0  0  3  0  0  0  0  0  0  0  0  0
    8.0972    2.4936    0.0000 C   0  0  3  0  0  0  0  0  0  0  0  0
    7.4309    4.9628    0.0000 C   0  0  3  0  0  0  0  0  0  0  0  0
    7.2331    1.9902    0.0000 C   0  0  3  0  0  0  0  0  0  0  0  0
    7.2211    0.9487    0.0000 C   0  0  2  0  0  0  0  0  0  0  0  0
    8.4192    5.0697    0.0000 C   0  0  3  0  0  0  0  0  0  0  0  0
    8.8278    4.1635    0.0000 C   0  0  0  0  0  0  0  0  0  0  0  0
    6.3613    3.4869    0.0000 C   0  0  2  0  0  0  0  0  0  0  0  0
    6.3652    2.4869    0.0000 C   0  0  0  0  0  0  0  0  0  0  0  0
    7.0286    5.8655    0.0000 C   0  0  1  0  0  0  0  0  0  0  0  0
    8.1211    0.4244    0.0000 C   0  0  3  0  0  0  0  0  0  0  0  0
    9.0092    1.9902    0.0000 C   0  0  0  0  0  0  0  0  0  0  0  0
    7.7615    6.5282    0.0000 C   0  0  1  0  0  0  0  0  0  0  0  0
    9.0212    0.9487    0.0000 C   0  0  0  0  0  0  0  0  0  0  0  0
    6.3575    4.4869    0.0000 C   0  0  0  0  0  0  0  0  0  0  0  0
    6.2712    0.4244    0.0000 C   0  0  0  0  0  0  0  0  0  0  0  0
    8.1337   -0.6605    0.0000 C   0  0  0  0  0  0  0  0  0  0  0  0
    6.3570    1.4520    0.0000 C   0  0  0  0  0  0  0  0  0  0  0  0
    6.2586   -0.6605    0.0000 C   0  0  2  0  0  0  0  0  0  0  0  0
    7.1962   -1.2066    0.0000 C   0  0  2  0  0  0  0  0  0  0  0  0
    6.0502    6.0721    0.0000 C   0  0  0  0  0  0  0  0  0  0  0  0
    8.5688    7.1184    0.0000 C   0  0  0  0  0  0  0  0  0  0  0  0
    8.4613    8.1126    0.0000 C   0  0  0  0  0  0  0  0  0  0  0  0
    6.7393    7.9264    0.0000 C   0  0  0  0  0  0  0  0  0  0  0  0
    7.5465    8.5166    0.0000 C   0  0  0  0  0  0  0  0  0  0  0  0
    6.3301   -2.7066    0.0000 C   0  0  2  0  0  0  0  0  0  0  0  0
    6.3301   -3.7066    0.0000 C   0  0  1  0  0  0  0  0  0  0  0  0
    5.4641   -4.2066    0.0000 C   0  0  2  0  0  0  0  0  0  0  0  0
    4.5981   -2.7066    0.0000 C   0  0  1  0  0  0  0  0  0  0  0  0
    4.5981   -3.7066    0.0000 C   0  0  2  0  0  0  0  0  0  0  0  0
    3.7321   -2.2066    0.0000 C   0  0  0  0  0  0  0  0  0  0  0  0
    3.7321   -5.2066    0.0000 C   0  0  2  0  0  0  0  0  0  0  0  0
    2.8660   -5.7066    0.0000 C   0  0  1  0  0  0  0  0  0  0  0  0
    2.8660   -6.7066    0.0000 C   0  0  2  0  0  0  0  0  0  0  0  0
    4.5981   -6.7066    0.0000 C   0  0  1  0  0  0  0  0  0  0  0  0
    3.7321   -7.2066    0.0000 C   0  0  1  0  0  0  0  0  0  0  0  0
    5.4641   -7.2066    0.0000 C   0  0  0  0  0  0  0  0  0  0  0  0
    8.8716    3.1519    0.0000 H   0  0  0  0  0  0  0  0  0  0  0  0
    8.8284    2.9271    0.0000 H   0  0  0  0  0  0  0  0  0  0  0  0
    6.5856    4.8733    0.0000 H   0  0  0  0  0  0  0  0  0  0  0  0
    7.9676    1.5624    0.0000 H   0  0  0  0  0  0  0  0  0  0  0  0
    9.2641    5.1629    0.0000 H   0  0  0  0  0  0  0  0  0  0  0  0
    9.1952    3.6641    0.0000 H   0  0  0  0  0  0  0  0  0  0  0  0
    9.3631    4.4763    0.0000 H   0  0  0  0  0  0  0  0  0  0  0  0
    5.8256    3.1748    0.0000 H   0  0  0  0  0  0  0  0  0  0  0  0
    5.7542    2.5922    0.0000 H   0  0  0  0  0  0  0  0  0  0  0  0
    6.1554    1.9035    0.0000 H   0  0  0  0  0  0  0  0  0  0  0  0
    6.8671    6.4641    0.0000 H   0  0  0  0  0  0  0  0  0  0  0  0
    8.8605    0.0051    0.0000 H   0  0  0  0  0  0  0  0  0  0  0  0
    9.6212    1.8912    0.0000 H   0  0  0  0  0  0  0  0  0  0  0  0
    9.2115    2.5763    0.0000 H   0  0  0  0  0  0  0  0  0  0  0  0
    9.2370    0.3674    0.0000 H   0  0  0  0  0  0  0  0  0  0  0  0
    9.6308    1.0618    0.0000 H   0  0  0  0  0  0  0  0  0  0  0  0
    6.6654    5.0250    0.0000 H   0  0  0  0  0  0  0  0  0  0  0  0
    5.8193    4.7948    0.0000 H   0  0  0  0  0  0  0  0  0  0  0  0
    6.0495    3.9488    0.0000 H   0  0  0  0  0  0  0  0  0  0  0  0
    6.0689    1.0105    0.0000 H   0  0  0  0  0  0  0  0  0  0  0  0
    5.6591    0.3254    0.0000 H   0  0  0  0  0  0  0  0  0  0  0  0
    8.3495   -1.2418    0.0000 H   0  0  0  0  0  0  0  0  0  0  0  0
    8.7433   -0.5474    0.0000 H   0  0  0  0  0  0  0  0  0  0  0  0
    6.6691    1.9878    0.0000 H   0  0  0  0  0  0  0  0  0  0  0  0
    5.8213    1.7641    0.0000 H   0  0  0  0  0  0  0  0  0  0  0  0
    6.0449    0.9163    0.0000 H   0  0  0  0  0  0  0  0  0  0  0  0
    5.7247   -0.3454    0.0000 H   0  0  0  0  0  0  0  0  0  0  0  0
    7.7337   -1.5156    0.0000 H   0  0  0  0  0  0  0  0  0  0  0  0
    6.1783    6.6787    0.0000 H   0  0  0  0  0  0  0  0  0  0  0  0
    5.4436    6.2003    0.0000 H   0  0  0  0  0  0  0  0  0  0  0  0
    5.9220    5.4655    0.0000 H   0  0  0  0  0  0  0  0  0  0  0  0
    8.8423    6.5620    0.0000 H   0  0  0  0  0  0  0  0  0  0  0  0
    9.1643    7.2911    0.0000 H   0  0  0  0  0  0  0  0  0  0  0  0
    4.9576    3.6715    0.0000 H   0  0  0  0  0  0  0  0  0  0  0  0
    9.0799    8.0712    0.0000 H   0  0  0  0  0  0  0  0  0  0  0  0
    8.6095    8.7147    0.0000 H   0  0  0  0  0  0  0  0  0  0  0  0
    6.4658    8.4829    0.0000 H   0  0  0  0  0  0  0  0  0  0  0  0
    6.1438    7.7538    0.0000 H   0  0  0  0  0  0  0  0  0  0  0  0
    7.8917    9.0317    0.0000 H   0  0  0  0  0  0  0  0  0  0  0  0
    7.0993    8.9460    0.0000 H   0  0  0  0  0  0  0  0  0  0  0  0
    4.8542   -0.8397    0.0000 H   0  0  0  0  0  0  0  0  0  0  0  0
    6.3301   -2.0866    0.0000 H   0  0  0  0  0  0  0  0  0  0  0  0
    6.8671   -3.3966    0.0000 H   0  0  0  0  0  0  0  0  0  0  0  0
    6.0010   -4.5166    0.0000 H   0  0  0  0  0  0  0  0  0  0  0  0
    4.5981   -2.0866    0.0000 H   0  0  0  0  0  0  0  0  0  0  0  0
    4.0611   -3.3966    0.0000 H   0  0  0  0  0  0  0  0  0  0  0  0
    7.7331   -3.8966    0.0000 H   0  0  0  0  0  0  0  0  0  0  0  0
    3.1215   -2.0990    0.0000 H   0  0  0  0  0  0  0  0  0  0  0  0
    3.5200   -2.7893    0.0000 H   0  0  0  0  0  0  0  0  0  0  0  0
    6.0010   -5.5166    0.0000 H   0  0  0  0  0  0  0  0  0  0  0  0
    3.1951   -4.8966    0.0000 H   0  0  0  0  0  0  0  0  0  0  0  0
    3.1951   -0.8966    0.0000 H   0  0  0  0  0  0  0  0  0  0  0  0
    2.8660   -5.0866    0.0000 H   0  0  0  0  0  0  0  0  0  0  0  0
    2.8660   -7.3266    0.0000 H   0  0  0  0  0  0  0  0  0  0  0  0
    5.1350   -6.3966    0.0000 H   0  0  0  0  0  0  0  0  0  0  0  0
    4.2690   -7.5166    0.0000 H   0  0  0  0  0  0  0  0  0  0  0  0
    2.0000   -4.5866    0.0000 H   0  0  0  0  0  0  0  0  0  0  0  0
    5.0656   -7.6816    0.0000 H   0  0  0  0  0  0  0  0  0  0  0  0
    5.8626   -7.6816    0.0000 H   0  0  0  0  0  0  0  0  0  0  0  0
    2.0000   -7.8266    0.0000 H   0  0  0  0  0  0  0  0  0  0  0  0
    4.2690   -8.5166    0.0000 H   0  0  0  0  0  0  0  0  0  0  0  0
    6.8671   -7.0166    0.0000 H   0  0  0  0  0  0  0  0  0  0  0  0
  1 22  1  0  0  0  0
  2 87  1  0  0  0  0
  3 29  1  0  0  0  0
  3 40  1  0  0  0  0
  5 94  1  0  0  0  0
  6 42  1  0  0  0  0
  6 45  1  0  0  0  0
  7100  1  0  0  0  0
  8103  1  0  0  0  0
 10 47  1  0  0  0  0
 10105  1  0  0  0  0
 11 48  1  0  0  0  0
 11 51  1  0  0  0  0
 12110  1  0  0  0  0
 13113  1  0  0  0  0
 14114  1  0  0  0  0
 15 53  1  0  0  0  0
 15115  1  0  0  0  0
 16 17  1  0  0  0  0
 16 19  1  0  0  0  0
 16 24  1  0  0  0  0
 16 31  1  1  0  0  0
 17 18  1  0  0  0  0
 17 23  1  0  0  0  0
 17 54  1  0  0  0  0
 18 20  1  0  0  0  0
 18 28  1  0  0  0  0
 18 55  1  0  0  0  0
 19 22  1  0  0  0  0
 19 26  1  0  0  0  0
 19 56  1  0  0  0  0
 20 21  1  0  0  0  0
 20 25  1  0  0  0  0
 20 57  1  0  0  0  0
 21 27  1  0  0  0  0
 21 32  1  0  0  0  0
 21 34  1  1  0  0  0
 22 23  1  0  0  0  0
 22 58  1  0  0  0  0
 23 59  1  0  0  0  0
 23 60  1  0  0  0  0
 24  2  1  0  0  0  0
 24 25  1  0  0  0  0
 24 61  1  1  0  0  0
 25 62  1  0  0  0  0
 25 63  1  0  0  0  0
 26 29  1  0  0  0  0
 26 37  1  0  0  0  0
 26 64  1  1  0  0  0
 27 30  1  0  0  0  0
 27 33  1  0  0  0  0
 27 65  1  0  0  0  0
 28 30  1  0  0  0  0
 28 66  1  0  0  0  0
 28 67  1  0  0  0  0
 29  1  1  6  0  0  0
 29 38  1  0  0  0  0
 30 68  1  0  0  0  0
 30 69  1  0  0  0  0
 31 70  1  0  0  0  0
 31 71  1  0  0  0  0
 31 72  1  0  0  0  0
 32 35  1  0  0  0  0
 32 73  1  0  0  0  0
 32 74  1  0  0  0  0
 33 36  1  0  0  0  0
 33 75  1  0  0  0  0
 33 76  1  0  0  0  0
 34 77  1  0  0  0  0
 34 78  1  0  0  0  0
 34 79  1  0  0  0  0
 35  5  1  0  0  0  0
 35 36  1  0  0  0  0
 35 80  1  1  0  0  0
 36  4  1  0  0  0  0
 36 81  1  6  0  0  0
 37 82  1  0  0  0  0
 37 83  1  0  0  0  0
 37 84  1  0  0  0  0
 38 39  1  0  0  0  0
 38 85  1  0  0  0  0
 38 86  1  0  0  0  0
 39 41  1  0  0  0  0
 39 88  1  0  0  0  0
 39 89  1  0  0  0  0
 40 41  1  0  0  0  0
 40 90  1  0  0  0  0
 40 91  1  0  0  0  0
 41 92  1  0  0  0  0
 41 93  1  0  0  0  0
 42  4  1  0  0  0  0
 42 43  1  0  0  0  0
 42 95  1  6  0  0  0
 43  7  1  0  0  0  0
 43 44  1  0  0  0  0
 43 96  1  1  0  0  0
 44  8  1  0  0  0  0
 44 46  1  0  0  0  0
 44 97  1  6  0  0  0
 45 46  1  0  0  0  0
 45 47  1  0  0  0  0
 45 98  1  6  0  0  0
 46  9  1  0  0  0  0
 46 99  1  6  0  0  0
 47101  1  0  0  0  0
 47102  1  0  0  0  0
 48  9  1  0  0  0  0
 48 49  1  0  0  0  0
 48104  1  1  0  0  0
 49 12  1  0  0  0  0
 49 50  1  0  0  0  0
 49106  1  6  0  0  0
 50 13  1  0  0  0  0
 50 52  1  0  0  0  0
 50107  1  1  0  0  0
 51 52  1  0  0  0  0
 51 53  1  0  0  0  0
 51108  1  1  0  0  0
 52 14  1  0  0  0  0
 52109  1  6  0  0  0
 53111  1  0  0  0  0
 53112  1  0  0  0  0
M  END
>  <PUBCHEM_COMPOUND_CID>
3084119

>  <PUBCHEM_COMPOUND_CANONICALIZED>
1

>  <PUBCHEM_CACTVS_COMPLEXITY>
1310

>  <PUBCHEM_CACTVS_HBOND_ACCEPTOR>
15

>  <PUBCHEM_CACTVS_HBOND_DONOR>
9

>  <PUBCHEM_CACTVS_ROTATABLE_BOND>
6

>  <PUBCHEM_CACTVS_SUBSKEYS>
AAADcfB8PAAAAAAAAAAAAAAAAAAAAaIAAAA0aNECAAASAGDAAAAAGgAACAAADxSwgAMCCAAABgAAAAAAAAAAAAAAAAAAAAAAAAAREAIAAAAiQAAFAAAHAAHA4PwPgAAAAAAAAADAAAYAADCAAYAADAAAAA==

>  <PUBCHEM_IUPAC_OPENEYE_NAME>
(2S,3R,4S,5S,6R)-2-[(2R,3R,4R,5R,6R)-6-[(6R,7S,9S,10S,13S,15R,16R)-10,15-dihydroxy-7,9,13-trimethyl-spiro[5-oxapentacyclo[10.8.0.02,9.04,8.013,18]icosane-6,2'-tetrahydropyran]-16-yl]oxy-4,5-dihydroxy-2-(hydroxymethyl)tetrahydropyran-3-yl]oxy-6-(hydroxymethyl)tetrahydropyran-3,4,5-triol

>  <PUBCHEM_IUPAC_CAS_NAME>
(2S,3R,4S,5S,6R)-2-[[(2R,3R,4R,5R,6R)-6-[[(6R,7S,9S,10S,13S,15R,16R)-10,15-dihydroxy-7,9,13-trimethyl-16-spiro[5-oxapentacyclo[10.8.0.02,9.04,8.013,18]eicosane-6,2'-oxane]yl]oxy]-4,5-dihydroxy-2-(hydroxymethyl)-3-oxanyl]oxy]-6-(hydroxymethyl)oxane-3,4,5-triol

>  <PUBCHEM_IUPAC_NAME_MARKUP>
(2<I>S</I>,3<I>R</I>,4<I>S</I>,5<I>S</I>,6<I>R</I>)-2-[(2<I>R</I>,3<I>R</I>,4<I>R</I>,5<I>R</I>,6<I>R</I>)-6-[(6<I>R</I>,7<I>S</I>,9<I>S</I>,10<I>S</I>,13<I>S</I>,15<I>R</I>,16<I>R</I>)-10,15-dihydroxy-7,9,13-trimethylspiro[5-oxapentacyclo[10.8.0.0<SUP>2,9</SUP>.0<SUP>4,8</SUP>.0<SUP>13,18</SUP>]icosane-6,2&apos;-oxane]-16-yl]oxy-4,5-dihydroxy-2-(hydroxymethyl)oxan-3-yl]oxy-6-(hydroxymethyl)oxane-3,4,5-triol

>  <PUBCHEM_IUPAC_NAME>
(2S,3R,4S,5S,6R)-2-[(2R,3R,4R,5R,6R)-6-[(6R,7S,9S,10S,13S,15R,16R)-10,15-dihydroxy-7,9,13-trimethylspiro[5-oxapentacyclo[10.8.0.02,9.04,8.013,18]icosane-6,2'-oxane]-16-yl]oxy-4,5-dihydroxy-2-(hydroxymethyl)oxan-3-yl]oxy-6-(hydroxymethyl)oxane-3,4,5-triol

>  <PUBCHEM_IUPAC_SYSTEMATIC_NAME>
(2R,3S,4S,5R,6S)-2-(hydroxymethyl)-6-[(2R,3R,4R,5R,6R)-2-(hydroxymethyl)-4,5-bis(oxidanyl)-6-[(6R,7S,9S,10S,13S,15R,16R)-7,9,13-trimethyl-10,15-bis(oxidanyl)spiro[5-oxapentacyclo[10.8.0.02,9.04,8.013,18]icosane-6,2'-oxane]-16-yl]oxy-oxan-3-yl]oxy-oxane-3,4,5-triol

>  <PUBCHEM_IUPAC_TRADITIONAL_NAME>
(2S,3R,4S,5S,6R)-2-[(2R,3R,4R,5R,6R)-6-[(6R,7S,9S,10S,13S,15R,16R)-10,15-dihydroxy-7,9,13-trimethyl-spiro[5-oxapentacyclo[10.8.0.02,9.04,8.013,18]eicosane-6,2'-tetrahydropyran]-16-yl]oxy-4,5-dihydroxy-2-methylol-tetrahydropyran-3-yl]oxy-6-methylol-tetrahydropyran-3,4,5-triol

>  <PUBCHEM_IUPAC_INCHI>
InChI=1S/C38H62O15/c1-16-27-23(53-38(16)8-4-5-9-48-38)11-20-18-7-6-17-10-22(21(41)13-36(17,2)19(18)12-26(42)37(20,27)3)49-34-32(47)30(45)33(25(15-40)51-34)52-35-31(46)29(44)28(43)24(14-39)50-35/h16-35,39-47H,4-15H2,1-3H3/t16-,17?,18?,19?,20?,21+,22+,23?,24+,25+,26-,27?,28+,29-,30+,31+,32+,33-,34+,35-,36-,37+,38+/m0/s1

>  <PUBCHEM_IUPAC_INCHIKEY>
MTZLHTRAIKFJLJ-PYUCPRTRSA-N

>  <PUBCHEM_XLOGP3_AA>
0

>  <PUBCHEM_EXACT_MASS>
758.40887127

>  <PUBCHEM_MOLECULAR_FORMULA>
C38H62O15

>  <PUBCHEM_MOLECULAR_WEIGHT>
758.9

>  <PUBCHEM_SMILES>
C[C@H]1C2C(CC3[C@@]2([C@H](CC4C3CCC5[C@@]4(C[C@H]([C@@H](C5)O[C@H]6[C@@H]([C@H]([C@H]([C@H](O6)CO)O[C@H]7[C@@H]([C@H]([C@@H]([C@H](O7)CO)O)O)O)O)O)O)C)O)C)O[C@]18CCCCO8

>  <PUBCHEM_OPENEYE_CAN_SMILES>
CC1C2C(CC3C2(C(CC4C3CCC5C4(CC(C(C5)OC6C(C(C(C(O6)CO)OC7C(C(C(C(O7)CO)O)O)O)O)O)O)C)O)C)OC18CCCCO8

>  <PUBCHEM_OPENEYE_ISO_SMILES>
C[C@H]1C2C(CC3[C@@]2([C@H](CC4C3CCC5[C@@]4(C[C@H]([C@@H](C5)O[C@H]6[C@@H]([C@H]([C@H]([C@H](O6)CO)O[C@H]7[C@@H]([C@H]([C@@H]([C@H](O7)CO)O)O)O)O)O)O)C)O)C)O[C@]18CCCCO8

>  <PUBCHEM_CACTVS_TPSA>
237

>  <PUBCHEM_MONOISOTOPIC_WEIGHT>
758.40887127

>  <PUBCHEM_TOTAL_CHARGE>
0

>  <PUBCHEM_HEAVY_ATOM_COUNT>
53

>  <PUBCHEM_ATOM_DEF_STEREO_COUNT>
17

>  <PUBCHEM_ATOM_UDEF_STEREO_COUNT>
6

>  <PUBCHEM_BOND_DEF_STEREO_COUNT>
0

>  <PUBCHEM_BOND_UDEF_STEREO_COUNT>
0

>  <PUBCHEM_ISOTOPIC_ATOM_COUNT>
0

>  <PUBCHEM_COMPONENT_COUNT>
1

>  <PUBCHEM_CACTVS_TAUTO_COUNT>
-1

>  <PUBCHEM_COORDINATE_TYPE>
1
5
255

>  <PUBCHEM_BONDANNOTATIONS>
29  1  6
49  12  5
50  13  6
52  14  5
16  31  5
17  54  3
18  55  3
19  56  3
24  2  6
20  57  3
21  34  5
22  58  3
26  37  6
27  65  3
36  4  5
42  4  5
45  47  5
35  5  6
51  53  6
43  7  6
44  8  5
46  9  5
48  9  6

$$$$
