3474285
 OpenBabel06082519392D

175185  0  0  1  0  0  0  0  0999 V2000
    5.5982    8.5264    0.0000 O   0  0  0  0  0  0  0  0  0  0  0  0
    3.9370    7.4388    0.0000 O   0  0  0  0  0  0  0  0  0  0  0  0
   12.0262    3.1719    0.0000 O   0  0  0  0  0  0  0  0  0  0  0  0
   11.1602    1.6719    0.0000 O   0  0  0  0  0  0  0  0  0  0  0  0
   13.7583    2.1719    0.0000 O   0  0  0  0  0  0  0  0  0  0  0  0
   13.7583    0.1719    0.0000 O   0  0  0  0  0  0  0  0  0  0  0  0
   12.0262   -0.8281    0.0000 O   0  0  0  0  0  0  0  0  0  0  0  0
    9.4281    0.6719    0.0000 O   0  0  0  0  0  0  0  0  0  0  0  0
   10.2942   -0.8281    0.0000 O   0  0  0  0  0  0  0  0  0  0  0  0
   12.0262   -2.8281    0.0000 O   0  0  0  0  0  0  0  0  0  0  0  0
   10.2942   -3.8281    0.0000 O   0  0  0  0  0  0  0  0  0  0  0  0
    8.5621   -2.8281    0.0000 O   0  0  0  0  0  0  0  0  0  0  0  0
   12.0262   -4.5602    0.0000 O   0  0  0  0  0  0  0  0  0  0  0  0
    8.5621    0.1719    0.0000 O   0  0  0  0  0  0  0  0  0  0  0  0
    8.5621   -3.8281    0.0000 O   0  0  0  0  0  0  0  0  0  0  0  0
   14.0262   -2.8281    0.0000 O   0  0  0  0  0  0  0  0  0  0  0  0
   15.0262   -4.5602    0.0000 O   0  0  0  0  0  0  0  0  0  0  0  0
   10.2942   -5.8281    0.0000 O   0  0  0  0  0  0  0  0  0  0  0  0
   14.0263   -6.2922    0.0000 O   0  0  0  0  0  0  0  0  0  0  0  0
    8.5621   -6.8281    0.0000 O   0  0  0  0  0  0  0  0  0  0  0  0
    6.8300   -5.8281    0.0000 O   0  0  0  0  0  0  0  0  0  0  0  0
   12.0263   -7.2922    0.0000 O   0  0  0  0  0  0  0  0  0  0  0  0
   15.0262   -6.2922    0.0000 O   0  0  0  0  0  0  0  0  0  0  0  0
   17.0262   -4.5602    0.0000 O   0  0  0  0  0  0  0  0  0  0  0  0
   18.0262   -6.2922    0.0000 O   0  0  0  0  0  0  0  0  0  0  0  0
   17.0262   -8.0243    0.0000 O   0  0  0  0  0  0  0  0  0  0  0  0
   15.5263   -8.8902    0.0000 O   0  0  0  0  0  0  0  0  0  0  0  0
    6.6742    6.2957    0.0000 C   0  0  3  0  0  0  0  0  0  0  0  0
    7.5383    6.7990    0.0000 C   0  0  3  0  0  0  0  0  0  0  0  0
    8.4062    6.3023    0.0000 C   0  0  3  0  0  0  0  0  0  0  0  0
    5.9346    6.9599    0.0000 C   0  0  3  0  0  0  0  0  0  0  0  0
    8.4101    5.3024    0.0000 C   0  0  3  0  0  0  0  0  0  0  0  0
    6.3362    7.8692    0.0000 C   0  0  3  0  0  0  0  0  0  0  0  0
    9.3061    4.7711    0.0000 C   0  0  3  0  0  0  0  0  0  0  0  0
    7.3253    7.7700    0.0000 C   0  0  0  0  0  0  0  0  0  0  0  0
    6.6780    5.2957    0.0000 C   0  0  0  0  0  0  0  0  0  0  0  0
    7.5460    4.7990    0.0000 C   0  0  0  0  0  0  0  0  0  0  0  0
    4.9518    7.0628    0.0000 C   0  0  3  0  0  0  0  0  0  0  0  0
   10.2102    5.2885    0.0000 C   0  0  3  0  0  0  0  0  0  0  0  0
    9.2981    6.8404    0.0000 C   0  0  0  0  0  0  0  0  0  0  0  0
    4.7443    8.0290    0.0000 C   0  0  3  0  0  0  0  0  0  0  0  0
   10.2061    6.3301    0.0000 C   0  0  0  0  0  0  0  0  0  0  0  0
    5.8101    5.7923    0.0000 C   0  0  0  0  0  0  0  0  0  0  0  0
    9.2852    3.6864    0.0000 C   0  0  0  0  0  0  0  0  0  0  0  0
   11.1560    4.7569    0.0000 C   0  0  0  0  0  0  0  0  0  0  0  0
    8.4381    4.2745    0.0000 C   0  0  0  0  0  0  0  0  0  0  0  0
   10.2185    3.1330    0.0000 C   0  0  0  0  0  0  0  0  0  0  0  0
    4.2836    6.3188    0.0000 C   0  0  0  0  0  0  0  0  0  0  0  0
   11.1602    3.6719    0.0000 C   0  0  3  0  0  0  0  0  0  0  0  0
    4.6368    9.0232    0.0000 C   0  0  0  0  0  0  0  0  0  0  0  0
    3.7220    9.4272    0.0000 C   0  0  0  0  0  0  0  0  0  0  0  0
    3.0223    7.8428    0.0000 C   0  0  0  0  0  0  0  0  0  0  0  0
    2.9148    8.8370    0.0000 C   0  0  3  0  0  0  0  0  0  0  0  0
    2.0000    9.2410    0.0000 C   0  0  0  0  0  0  0  0  0  0  0  0
   12.0262    2.1719    0.0000 C   0  0  3  0  0  0  0  0  0  0  0  0
   12.8922    1.6719    0.0000 C   0  0  3  0  0  0  0  0  0  0  0  0
   12.8922    0.6719    0.0000 C   0  0  3  0  0  0  0  0  0  0  0  0
   11.1602    0.6719    0.0000 C   0  0  3  0  0  0  0  0  0  0  0  0
   12.0262    0.1719    0.0000 C   0  0  3  0  0  0  0  0  0  0  0  0
   10.2942    0.1719    0.0000 C   0  0  0  0  0  0  0  0  0  0  0  0
   11.1602   -1.3281    0.0000 C   0  0  3  0  0  0  0  0  0  0  0  0
   11.1602   -2.3281    0.0000 C   0  0  3  0  0  0  0  0  0  0  0  0
   10.2942   -2.8281    0.0000 C   0  0  3  0  0  0  0  0  0  0  0  0
    9.4281   -1.3281    0.0000 C   0  0  3  0  0  0  0  0  0  0  0  0
    9.4281   -2.3281    0.0000 C   0  0  3  0  0  0  0  0  0  0  0  0
    8.5621   -0.8281    0.0000 C   0  0  0  0  0  0  0  0  0  0  0  0
   12.5263   -3.6941    0.0000 C   0  0  3  0  0  0  0  0  0  0  0  0
    9.4281   -4.3281    0.0000 C   0  0  3  0  0  0  0  0  0  0  0  0
   13.5262   -3.6941    0.0000 C   0  0  3  0  0  0  0  0  0  0  0  0
   14.0262   -4.5602    0.0000 C   0  0  3  0  0  0  0  0  0  0  0  0
    9.4281   -5.3281    0.0000 C   0  0  3  0  0  0  0  0  0  0  0  0
   12.5263   -5.4262    0.0000 C   0  0  3  0  0  0  0  0  0  0  0  0
   13.5263   -5.4261    0.0000 C   0  0  3  0  0  0  0  0  0  0  0  0
    8.5621   -5.8281    0.0000 C   0  0  3  0  0  0  0  0  0  0  0  0
    7.6961   -4.3281    0.0000 C   0  0  0  0  0  0  0  0  0  0  0  0
    7.6961   -5.3281    0.0000 C   0  0  3  0  0  0  0  0  0  0  0  0
   12.0262   -6.2922    0.0000 C   0  0  0  0  0  0  0  0  0  0  0  0
   15.5262   -5.4262    0.0000 C   0  0  3  0  0  0  0  0  0  0  0  0
   16.5262   -5.4262    0.0000 C   0  0  3  0  0  0  0  0  0  0  0  0
   17.0262   -6.2922    0.0000 C   0  0  3  0  0  0  0  0  0  0  0  0
   15.5262   -7.1582    0.0000 C   0  0  3  0  0  0  0  0  0  0  0  0
   16.5262   -7.1582    0.0000 C   0  0  3  0  0  0  0  0  0  0  0  0
   15.0263   -8.0242    0.0000 C   0  0  0  0  0  0  0  0  0  0  0  0
    8.0380    7.1660    0.0000 H   0  0  0  0  0  0  0  0  0  0  0  0
    8.3991    6.9223    0.0000 H   0  0  0  0  0  0  0  0  0  0  0  0
    5.6829    6.3933    0.0000 H   0  0  0  0  0  0  0  0  0  0  0  0
    8.9482    5.6103    0.0000 H   0  0  0  0  0  0  0  0  0  0  0  0
    6.5855    8.4369    0.0000 H   0  0  0  0  0  0  0  0  0  0  0  0
    7.9415    7.8384    0.0000 H   0  0  0  0  0  0  0  0  0  0  0  0
    7.3220    8.3900    0.0000 H   0  0  0  0  0  0  0  0  0  0  0  0
    6.0670    5.4010    0.0000 H   0  0  0  0  0  0  0  0  0  0  0  0
    6.4682    4.7122    0.0000 H   0  0  0  0  0  0  0  0  0  0  0  0
    7.1493    4.3225    0.0000 H   0  0  0  0  0  0  0  0  0  0  0  0
    7.9463    4.3256    0.0000 H   0  0  0  0  0  0  0  0  0  0  0  0
    4.3526    7.2223    0.0000 H   0  0  0  0  0  0  0  0  0  0  0  0
   10.7447    5.6026    0.0000 H   0  0  0  0  0  0  0  0  0  0  0  0
    9.6899    7.3210    0.0000 H   0  0  0  0  0  0  0  0  0  0  0  0
    8.8917    7.3087    0.0000 H   0  0  0  0  0  0  0  0  0  0  0  0
   10.8174    6.2264    0.0000 H   0  0  0  0  0  0  0  0  0  0  0  0
   10.4129    6.9146    0.0000 H   0  0  0  0  0  0  0  0  0  0  0  0
    5.4980    6.3281    0.0000 H   0  0  0  0  0  0  0  0  0  0  0  0
    5.2744    5.4803    0.0000 H   0  0  0  0  0  0  0  0  0  0  0  0
    6.1222    5.2566    0.0000 H   0  0  0  0  0  0  0  0  0  0  0  0
    8.6765    3.8042    0.0000 H   0  0  0  0  0  0  0  0  0  0  0  0
    9.0649    3.1068    0.0000 H   0  0  0  0  0  0  0  0  0  0  0  0
   11.7673    4.6531    0.0000 H   0  0  0  0  0  0  0  0  0  0  0  0
   11.3628    5.3414    0.0000 H   0  0  0  0  0  0  0  0  0  0  0  0
    8.1302    4.8126    0.0000 H   0  0  0  0  0  0  0  0  0  0  0  0
    7.9000    3.9666    0.0000 H   0  0  0  0  0  0  0  0  0  0  0  0
    8.7460    3.7364    0.0000 H   0  0  0  0  0  0  0  0  0  0  0  0
    9.8157    2.6617    0.0000 H   0  0  0  0  0  0  0  0  0  0  0  0
   10.6139    2.6555    0.0000 H   0  0  0  0  0  0  0  0  0  0  0  0
    3.8223    6.7331    0.0000 H   0  0  0  0  0  0  0  0  0  0  0  0
    3.8693    5.8576    0.0000 H   0  0  0  0  0  0  0  0  0  0  0  0
    4.7449    5.9046    0.0000 H   0  0  0  0  0  0  0  0  0  0  0  0
   11.1590    3.0519    0.0000 H   0  0  0  0  0  0  0  0  0  0  0  0
    5.2554    8.9818    0.0000 H   0  0  0  0  0  0  0  0  0  0  0  0
    4.7850    9.6252    0.0000 H   0  0  0  0  0  0  0  0  0  0  0  0
    4.0672    9.9422    0.0000 H   0  0  0  0  0  0  0  0  0  0  0  0
    3.2747    9.8565    0.0000 H   0  0  0  0  0  0  0  0  0  0  0  0
    2.4036    7.8842    0.0000 H   0  0  0  0  0  0  0  0  0  0  0  0
    2.8741    7.2408    0.0000 H   0  0  0  0  0  0  0  0  0  0  0  0
    2.8481    9.4534    0.0000 H   0  0  0  0  0  0  0  0  0  0  0  0
    2.2505    9.8081    0.0000 H   0  0  0  0  0  0  0  0  0  0  0  0
    1.4328    9.4915    0.0000 H   0  0  0  0  0  0  0  0  0  0  0  0
    1.7495    8.6738    0.0000 H   0  0  0  0  0  0  0  0  0  0  0  0
   12.5631    2.4819    0.0000 H   0  0  0  0  0  0  0  0  0  0  0  0
   13.4292    1.3619    0.0000 H   0  0  0  0  0  0  0  0  0  0  0  0
   13.4292    0.9819    0.0000 H   0  0  0  0  0  0  0  0  0  0  0  0
   10.6232    0.9819    0.0000 H   0  0  0  0  0  0  0  0  0  0  0  0
   12.5631   -0.1381    0.0000 H   0  0  0  0  0  0  0  0  0  0  0  0
   13.7583    2.7919    0.0000 H   0  0  0  0  0  0  0  0  0  0  0  0
    9.8956   -0.3031    0.0000 H   0  0  0  0  0  0  0  0  0  0  0  0
   10.6927   -0.3031    0.0000 H   0  0  0  0  0  0  0  0  0  0  0  0
   14.2952    0.4819    0.0000 H   0  0  0  0  0  0  0  0  0  0  0  0
   11.1602   -0.7081    0.0000 H   0  0  0  0  0  0  0  0  0  0  0  0
    9.4281    1.2919    0.0000 H   0  0  0  0  0  0  0  0  0  0  0  0
   11.1602   -2.9481    0.0000 H   0  0  0  0  0  0  0  0  0  0  0  0
    9.7572   -3.1381    0.0000 H   0  0  0  0  0  0  0  0  0  0  0  0
    9.4281   -0.7081    0.0000 H   0  0  0  0  0  0  0  0  0  0  0  0
    8.8912   -2.0181    0.0000 H   0  0  0  0  0  0  0  0  0  0  0  0
    7.9515   -0.7204    0.0000 H   0  0  0  0  0  0  0  0  0  0  0  0
    8.3500   -1.4107    0.0000 H   0  0  0  0  0  0  0  0  0  0  0  0
   12.8363   -3.1571    0.0000 H   0  0  0  0  0  0  0  0  0  0  0  0
    8.0252   -2.5181    0.0000 H   0  0  0  0  0  0  0  0  0  0  0  0
    9.9651   -4.6381    0.0000 H   0  0  0  0  0  0  0  0  0  0  0  0
   14.1462   -3.6941    0.0000 H   0  0  0  0  0  0  0  0  0  0  0  0
   14.3362   -5.0971    0.0000 H   0  0  0  0  0  0  0  0  0  0  0  0
    8.0252    0.4819    0.0000 H   0  0  0  0  0  0  0  0  0  0  0  0
    9.4281   -5.9481    0.0000 H   0  0  0  0  0  0  0  0  0  0  0  0
   11.9063   -5.4262    0.0000 H   0  0  0  0  0  0  0  0  0  0  0  0
   14.1463   -5.4261    0.0000 H   0  0  0  0  0  0  0  0  0  0  0  0
    8.0252   -6.1381    0.0000 H   0  0  0  0  0  0  0  0  0  0  0  0
   13.7162   -2.2912    0.0000 H   0  0  0  0  0  0  0  0  0  0  0  0
    7.4840   -3.7455    0.0000 H   0  0  0  0  0  0  0  0  0  0  0  0
    7.0855   -4.4358    0.0000 H   0  0  0  0  0  0  0  0  0  0  0  0
    7.1591   -5.0181    0.0000 H   0  0  0  0  0  0  0  0  0  0  0  0
   11.6277   -5.8173    0.0000 H   0  0  0  0  0  0  0  0  0  0  0  0
   12.6251   -6.4526    0.0000 H   0  0  0  0  0  0  0  0  0  0  0  0
   10.2942   -6.4481    0.0000 H   0  0  0  0  0  0  0  0  0  0  0  0
   13.7163   -6.8291    0.0000 H   0  0  0  0  0  0  0  0  0  0  0  0
   15.8362   -4.8892    0.0000 H   0  0  0  0  0  0  0  0  0  0  0  0
    8.0252   -7.1381    0.0000 H   0  0  0  0  0  0  0  0  0  0  0  0
   17.1462   -5.4262    0.0000 H   0  0  0  0  0  0  0  0  0  0  0  0
    6.2931   -5.5181    0.0000 H   0  0  0  0  0  0  0  0  0  0  0  0
   11.4893   -7.6022    0.0000 H   0  0  0  0  0  0  0  0  0  0  0  0
   17.3362   -6.8292    0.0000 H   0  0  0  0  0  0  0  0  0  0  0  0
   14.9062   -7.1582    0.0000 H   0  0  0  0  0  0  0  0  0  0  0  0
   16.2162   -7.6952    0.0000 H   0  0  0  0  0  0  0  0  0  0  0  0
   16.7162   -4.0232    0.0000 H   0  0  0  0  0  0  0  0  0  0  0  0
   14.5513   -7.6257    0.0000 H   0  0  0  0  0  0  0  0  0  0  0  0
   14.5513   -8.4228    0.0000 H   0  0  0  0  0  0  0  0  0  0  0  0
   18.3362   -6.8292    0.0000 H   0  0  0  0  0  0  0  0  0  0  0  0
   17.6462   -8.0243    0.0000 H   0  0  0  0  0  0  0  0  0  0  0  0
   15.2163   -9.4272    0.0000 H   0  0  0  0  0  0  0  0  0  0  0  0
  1 33  1  0  0  0  0
  1 41  1  0  0  0  0
  2 41  1  0  0  0  0
  2 52  1  0  0  0  0
  3 49  1  0  0  0  0
  3 55  1  0  0  0  0
  4 55  1  0  0  0  0
  4 58  1  0  0  0  0
  5 56  1  0  0  0  0
  5132  1  0  0  0  0
  6 57  1  0  0  0  0
  6135  1  0  0  0  0
  7 59  1  0  0  0  0
  7 61  1  0  0  0  0
  8 60  1  0  0  0  0
  8137  1  0  0  0  0
  9 61  1  0  0  0  0
  9 64  1  0  0  0  0
 10 62  1  0  0  0  0
 10 67  1  0  0  0  0
 11 63  1  0  0  0  0
 11 68  1  0  0  0  0
 12 65  1  0  0  0  0
 12145  1  0  0  0  0
 13 67  1  0  0  0  0
 13 72  1  0  0  0  0
 14 66  1  0  0  0  0
 14149  1  0  0  0  0
 15 68  1  0  0  0  0
 15 75  1  0  0  0  0
 16 69  1  0  0  0  0
 16154  1  0  0  0  0
 17 70  1  0  0  0  0
 17 78  1  0  0  0  0
 18 71  1  0  0  0  0
 18160  1  0  0  0  0
 19 73  1  0  0  0  0
 19161  1  0  0  0  0
 20 74  1  0  0  0  0
 20163  1  0  0  0  0
 21 76  1  0  0  0  0
 21165  1  0  0  0  0
 22 77  1  0  0  0  0
 22166  1  0  0  0  0
 23 78  1  0  0  0  0
 23 81  1  0  0  0  0
 24 79  1  0  0  0  0
 24170  1  0  0  0  0
 25 80  1  0  0  0  0
 25173  1  0  0  0  0
 26 82  1  0  0  0  0
 26174  1  0  0  0  0
 27 83  1  0  0  0  0
 27175  1  0  0  0  0
 28 29  1  0  0  0  0
 28 31  1  0  0  0  0
 28 36  1  0  0  0  0
 28 43  1  0  0  0  0
 29 30  1  0  0  0  0
 29 35  1  0  0  0  0
 29 84  1  0  0  0  0
 30 32  1  0  0  0  0
 30 40  1  0  0  0  0
 30 85  1  0  0  0  0
 31 33  1  0  0  0  0
 31 38  1  0  0  0  0
 31 86  1  0  0  0  0
 32 34  1  0  0  0  0
 32 37  1  0  0  0  0
 32 87  1  0  0  0  0
 33 35  1  0  0  0  0
 33 88  1  0  0  0  0
 34 39  1  0  0  0  0
 34 44  1  0  0  0  0
 34 46  1  0  0  0  0
 35 89  1  0  0  0  0
 35 90  1  0  0  0  0
 36 37  1  0  0  0  0
 36 91  1  0  0  0  0
 36 92  1  0  0  0  0
 37 93  1  0  0  0  0
 37 94  1  0  0  0  0
 38 41  1  0  0  0  0
 38 48  1  0  0  0  0
 38 95  1  0  0  0  0
 39 42  1  0  0  0  0
 39 45  1  0  0  0  0
 39 96  1  0  0  0  0
 40 42  1  0  0  0  0
 40 97  1  0  0  0  0
 40 98  1  0  0  0  0
 41 50  1  0  0  0  0
 42 99  1  0  0  0  0
 42100  1  0  0  0  0
 43101  1  0  0  0  0
 43102  1  0  0  0  0
 43103  1  0  0  0  0
 44 47  1  0  0  0  0
 44104  1  0  0  0  0
 44105  1  0  0  0  0
 45 49  1  0  0  0  0
 45106  1  0  0  0  0
 45107  1  0  0  0  0
 46108  1  0  0  0  0
 46109  1  0  0  0  0
 46110  1  0  0  0  0
 47 49  1  0  0  0  0
 47111  1  0  0  0  0
 47112  1  0  0  0  0
 48113  1  0  0  0  0
 48114  1  0  0  0  0
 48115  1  0  0  0  0
 49116  1  0  0  0  0
 50 51  1  0  0  0  0
 50117  1  0  0  0  0
 50118  1  0  0  0  0
 51 53  1  0  0  0  0
 51119  1  0  0  0  0
 51120  1  0  0  0  0
 52 53  1  0  0  0  0
 52121  1  0  0  0  0
 52122  1  0  0  0  0
 53 54  1  0  0  0  0
 53123  1  0  0  0  0
 54124  1  0  0  0  0
 54125  1  0  0  0  0
 54126  1  0  0  0  0
 55 56  1  0  0  0  0
 55127  1  0  0  0  0
 56 57  1  0  0  0  0
 56128  1  0  0  0  0
 57 59  1  0  0  0  0
 57129  1  0  0  0  0
 58 59  1  0  0  0  0
 58 60  1  0  0  0  0
 58130  1  0  0  0  0
 59131  1  0  0  0  0
 60133  1  0  0  0  0
 60134  1  0  0  0  0
 61 62  1  0  0  0  0
 61136  1  0  0  0  0
 62 63  1  0  0  0  0
 62138  1  0  0  0  0
 63 65  1  0  0  0  0
 63139  1  0  0  0  0
 64 65  1  0  0  0  0
 64 66  1  0  0  0  0
 64140  1  0  0  0  0
 65141  1  0  0  0  0
 66142  1  0  0  0  0
 66143  1  0  0  0  0
 67 69  1  0  0  0  0
 67144  1  0  0  0  0
 68 71  1  0  0  0  0
 68146  1  0  0  0  0
 69 70  1  0  0  0  0
 69147  1  0  0  0  0
 70 73  1  0  0  0  0
 70148  1  0  0  0  0
 71 74  1  0  0  0  0
 71150  1  0  0  0  0
 72 73  1  0  0  0  0
 72 77  1  0  0  0  0
 72151  1  0  0  0  0
 73152  1  0  0  0  0
 74 76  1  0  0  0  0
 74153  1  0  0  0  0
 75 76  1  0  0  0  0
 75155  1  0  0  0  0
 75156  1  0  0  0  0
 76157  1  0  0  0  0
 77158  1  0  0  0  0
 77159  1  0  0  0  0
 78 79  1  0  0  0  0
 78162  1  0  0  0  0
 79 80  1  0  0  0  0
 79164  1  0  0  0  0
 80 82  1  0  0  0  0
 80167  1  0  0  0  0
 81 82  1  0  0  0  0
 81 83  1  0  0  0  0
 81168  1  0  0  0  0
 82169  1  0  0  0  0
 83171  1  0  0  0  0
 83172  1  0  0  0  0
M  END
>  <PUBCHEM_COMPOUND_CID>
3474285

>  <PUBCHEM_COMPOUND_CANONICALIZED>
1

>  <PUBCHEM_CACTVS_COMPLEXITY>
2160

>  <PUBCHEM_CACTVS_HBOND_ACCEPTOR>
27

>  <PUBCHEM_CACTVS_HBOND_DONOR>
15

>  <PUBCHEM_CACTVS_ROTATABLE_BOND>
14

>  <PUBCHEM_CACTVS_SUBSKEYS>
AAADcfB8PgAAAAAAAAAAAAAAAAAAAaIAAAA0aNEiQAASAGDAAAAAGgAACAAADxSwgAMCCAAABgAAAAAAAAAAAAAAAAAAAAAAAAAREAIAAAAiQAAFAAAHAAHA4PwPgAAAAAAAAADAAAYAACAAAYAADAAAAA==

>  <PUBCHEM_IUPAC_OPENEYE_NAME>
2-[2-[2-[4,5-dihydroxy-2-(hydroxymethyl)-6-(5',7,9,13-tetramethylspiro[5-oxapentacyclo[10.8.0.02,9.04,8.013,18]icosane-6,2'-tetrahydropyran]-16-yl)oxy-tetrahydropyran-3-yl]oxy-5-hydroxy-6-(hydroxymethyl)-4-(3,4,5-trihydroxytetrahydropyran-2-yl)oxy-tetrahydropyran-3-yl]oxy-3,5-dihydroxy-6-(hydroxymethyl)tetrahydropyran-4-yl]oxy-6-(hydroxymethyl)tetrahydropyran-3,4,5-triol

>  <PUBCHEM_IUPAC_CAS_NAME>
2-[[2-[[2-[[4,5-dihydroxy-2-(hydroxymethyl)-6-[(5',7,9,13-tetramethyl-16-spiro[5-oxapentacyclo[10.8.0.02,9.04,8.013,18]eicosane-6,2'-oxane]yl)oxy]-3-oxanyl]oxy]-5-hydroxy-6-(hydroxymethyl)-4-[(3,4,5-trihydroxy-2-oxanyl)oxy]-3-oxanyl]oxy]-3,5-dihydroxy-6-(hydroxymethyl)-4-oxanyl]oxy]-6-(hydroxymethyl)oxane-3,4,5-triol

>  <PUBCHEM_IUPAC_NAME_MARKUP>
2-[2-[2-[4,5-dihydroxy-2-(hydroxymethyl)-6-(5&apos;,7,9,13-tetramethylspiro[5-oxapentacyclo[10.8.0.0<SUP>2,9</SUP>.0<SUP>4,8</SUP>.0<SUP>13,18</SUP>]icosane-6,2&apos;-oxane]-16-yl)oxyoxan-3-yl]oxy-5-hydroxy-6-(hydroxymethyl)-4-(3,4,5-trihydroxyoxan-2-yl)oxyoxan-3-yl]oxy-3,5-dihydroxy-6-(hydroxymethyl)oxan-4-yl]oxy-6-(hydroxymethyl)oxane-3,4,5-triol

>  <PUBCHEM_IUPAC_NAME>
2-[2-[2-[4,5-dihydroxy-2-(hydroxymethyl)-6-(5',7,9,13-tetramethylspiro[5-oxapentacyclo[10.8.0.02,9.04,8.013,18]icosane-6,2'-oxane]-16-yl)oxyoxan-3-yl]oxy-5-hydroxy-6-(hydroxymethyl)-4-(3,4,5-trihydroxyoxan-2-yl)oxyoxan-3-yl]oxy-3,5-dihydroxy-6-(hydroxymethyl)oxan-4-yl]oxy-6-(hydroxymethyl)oxane-3,4,5-triol

>  <PUBCHEM_IUPAC_SYSTEMATIC_NAME>
2-(hydroxymethyl)-6-[2-(hydroxymethyl)-6-[6-(hydroxymethyl)-2-[2-(hydroxymethyl)-4,5-bis(oxidanyl)-6-(5',7,9,13-tetramethylspiro[5-oxapentacyclo[10.8.0.02,9.04,8.013,18]icosane-6,2'-oxane]-16-yl)oxy-oxan-3-yl]oxy-5-oxidanyl-4-[3,4,5-tris(oxidanyl)oxan-2-yl]oxy-oxan-3-yl]oxy-3,5-bis(oxidanyl)oxan-4-yl]oxy-oxane-3,4,5-triol

>  <PUBCHEM_IUPAC_TRADITIONAL_NAME>
2-[2-[2-[4,5-dihydroxy-2-methylol-6-(5',7,9,13-tetramethylspiro[5-oxapentacyclo[10.8.0.02,9.04,8.013,18]eicosane-6,2'-tetrahydropyran]-16-yl)oxy-tetrahydropyran-3-yl]oxy-5-hydroxy-6-methylol-4-(3,4,5-trihydroxytetrahydropyran-2-yl)oxy-tetrahydropyran-3-yl]oxy-3,5-dihydroxy-6-methylol-tetrahydropyran-4-yl]oxy-6-methylol-tetrahydropyran-3,4,5-triol

>  <PUBCHEM_IUPAC_INCHI>
InChI=1S/C56H92O27/c1-21-7-12-56(73-19-21)22(2)34-29(83-56)14-27-25-6-5-23-13-24(8-10-54(23,3)26(25)9-11-55(27,34)4)74-50-43(70)40(67)45(33(18-60)78-50)79-53-48(47(38(65)32(17-59)77-53)81-49-41(68)35(62)28(61)20-72-49)82-52-44(71)46(37(64)31(16-58)76-52)80-51-42(69)39(66)36(63)30(15-57)75-51/h21-53,57-71H,5-20H2,1-4H3

>  <PUBCHEM_IUPAC_INCHIKEY>
QERHBVOJJKVACB-UHFFFAOYSA-N

>  <PUBCHEM_XLOGP3_AA>
-2

>  <PUBCHEM_EXACT_MASS>
1196.58259765

>  <PUBCHEM_MOLECULAR_FORMULA>
C56H92O27

>  <PUBCHEM_MOLECULAR_WEIGHT>
1197.3

>  <PUBCHEM_SMILES>
CC1CCC2(C(C3C(O2)CC4C3(CCC5C4CCC6C5(CCC(C6)OC7C(C(C(C(O7)CO)OC8C(C(C(C(O8)CO)O)OC9C(C(C(CO9)O)O)O)OC2C(C(C(C(O2)CO)O)OC2C(C(C(C(O2)CO)O)O)O)O)O)O)C)C)C)OC1

>  <PUBCHEM_OPENEYE_CAN_SMILES>
CC1CCC2(C(C3C(O2)CC4C3(CCC5C4CCC6C5(CCC(C6)OC7C(C(C(C(O7)CO)OC8C(C(C(C(O8)CO)O)OC9C(C(C(CO9)O)O)O)OC2C(C(C(C(O2)CO)O)OC2C(C(C(C(O2)CO)O)O)O)O)O)O)C)C)C)OC1

>  <PUBCHEM_OPENEYE_ISO_SMILES>
CC1CCC2(C(C3C(O2)CC4C3(CCC5C4CCC6C5(CCC(C6)OC7C(C(C(C(O7)CO)OC8C(C(C(C(O8)CO)O)OC9C(C(C(CO9)O)O)O)OC2C(C(C(C(O2)CO)O)OC2C(C(C(C(O2)CO)O)O)O)O)O)O)C)C)C)OC1

>  <PUBCHEM_CACTVS_TPSA>
414

>  <PUBCHEM_MONOISOTOPIC_WEIGHT>
1196.58259765

>  <PUBCHEM_TOTAL_CHARGE>
0

>  <PUBCHEM_HEAVY_ATOM_COUNT>
83

>  <PUBCHEM_ATOM_DEF_STEREO_COUNT>
0

>  <PUBCHEM_ATOM_UDEF_STEREO_COUNT>
36

>  <PUBCHEM_BOND_DEF_STEREO_COUNT>
0

>  <PUBCHEM_BOND_UDEF_STEREO_COUNT>
0

>  <PUBCHEM_ISOTOPIC_ATOM_COUNT>
0

>  <PUBCHEM_COMPONENT_COUNT>
1

>  <PUBCHEM_CACTVS_TAUTO_COUNT>
-1

>  <PUBCHEM_COORDINATE_TYPE>
1
5
255

>  <PUBCHEM_BONDANNOTATIONS>
62  10  3
67  10  3
63  11  3
68  11  3
65  12  3
69  16  3
70  17  3
78  17  3
71  18  3
73  19  3
74  20  3
76  21  3
79  24  3
80  25  3
82  26  3
28  43  3
29  35  3
49  3  3
55  3  3
30  40  3
31  38  3
32  37  3
33  35  3
34  46  3
38  48  3
39  42  3
41  50  3
56  5  3
53  54  3
58  60  3
57  6  3
64  66  3
59  7  3
61  7  3
72  77  3
81  83  3

$$$$
