3509806
 OpenBabel06082519392D

110117  0  0  1  0  0  0  0  0999 V2000
   10.8604   -2.5560    0.0000 O   0  0  0  0  0  0  0  0  0  0  0  0
    9.0743   -3.4233    0.0000 O   0  0  0  0  0  0  0  0  0  0  0  0
    7.7331    2.5926    0.0000 O   0  0  0  0  0  0  0  0  0  0  0  0
    9.5646    5.7091    0.0000 O   0  0  0  0  0  0  0  0  0  0  0  0
    6.8671    4.0926    0.0000 O   0  0  0  0  0  0  0  0  0  0  0  0
    6.0010    1.5926    0.0000 O   0  0  0  0  0  0  0  0  0  0  0  0
    4.2690    2.5926    0.0000 O   0  0  0  0  0  0  0  0  0  0  0  0
    4.2690    4.5926    0.0000 O   0  0  0  0  0  0  0  0  0  0  0  0
    4.2690    1.5926    0.0000 O   0  0  0  0  0  0  0  0  0  0  0  0
    6.0010   -0.4074    0.0000 O   0  0  0  0  0  0  0  0  0  0  0  0
    4.2690   -1.4074    0.0000 O   0  0  0  0  0  0  0  0  0  0  0  0
    2.5369   -0.4074    0.0000 O   0  0  0  0  0  0  0  0  0  0  0  0
    9.4983   -0.4875    0.0000 C   0  0  3  0  0  0  0  0  0  0  0  0
   10.3738   -0.0043    0.0000 C   0  0  3  0  0  0  0  0  0  0  0  0
    9.6887   -1.4632    0.0000 C   0  0  3  0  0  0  0  0  0  0  0  0
   10.3930    0.9955    0.0000 C   0  0  3  0  0  0  0  0  0  0  0  0
   10.6753   -1.5853    0.0000 C   0  0  3  0  0  0  0  0  0  0  0  0
    9.5368    1.5121    0.0000 C   0  0  3  0  0  0  0  0  0  0  0  0
   11.0978   -0.6855    0.0000 C   0  0  0  0  0  0  0  0  0  0  0  0
    8.6420    0.0291    0.0000 C   0  0  0  0  0  0  0  0  0  0  0  0
    9.2726   -2.3595    0.0000 C   0  0  3  0  0  0  0  0  0  0  0  0
    8.6613    1.0289    0.0000 C   0  0  0  0  0  0  0  0  0  0  0  0
    9.5408    2.5538    0.0000 C   0  0  3  0  0  0  0  0  0  0  0  0
    9.9952   -3.0335    0.0000 C   0  0  3  0  0  0  0  0  0  0  0  0
    8.6228   -0.9707    0.0000 C   0  0  0  0  0  0  0  0  0  0  0  0
   11.3126    1.4847    0.0000 C   0  0  0  0  0  0  0  0  0  0  0  0
   10.4489    3.0641    0.0000 C   0  0  0  0  0  0  0  0  0  0  0  0
    8.5991    3.0926    0.0000 C   0  0  3  0  0  0  0  0  0  0  0  0
    8.2911   -2.5510    0.0000 C   0  0  0  0  0  0  0  0  0  0  0  0
   11.3407    2.5260    0.0000 C   0  0  0  0  0  0  0  0  0  0  0  0
   10.7933   -3.6360    0.0000 C   0  0  0  0  0  0  0  0  0  0  0  0
    8.6691    2.0638    0.0000 C   0  0  0  0  0  0  0  0  0  0  0  0
   10.4781    4.1487    0.0000 C   0  0  0  0  0  0  0  0  0  0  0  0
    8.6033    4.1776    0.0000 C   0  0  0  0  0  0  0  0  0  0  0  0
    9.5491    4.7092    0.0000 C   0  0  3  0  0  0  0  0  0  0  0  0
   10.6705   -4.6285    0.0000 C   0  0  0  0  0  0  0  0  0  0  0  0
    9.7496   -5.0183    0.0000 C   0  0  3  0  0  0  0  0  0  0  0  0
    8.9515   -4.4158    0.0000 C   0  0  0  0  0  0  0  0  0  0  0  0
    6.8671    3.0926    0.0000 C   0  0  3  0  0  0  0  0  0  0  0  0
    9.6268   -6.0108    0.0000 C   0  0  0  0  0  0  0  0  0  0  0  0
    6.0010    2.5926    0.0000 C   0  0  3  0  0  0  0  0  0  0  0  0
    5.1350    3.0926    0.0000 C   0  0  3  0  0  0  0  0  0  0  0  0
    6.0010    4.5926    0.0000 C   0  0  0  0  0  0  0  0  0  0  0  0
    5.1350    4.0926    0.0000 C   0  0  3  0  0  0  0  0  0  0  0  0
    5.1350    1.0926    0.0000 C   0  0  3  0  0  0  0  0  0  0  0  0
    5.1350    0.0926    0.0000 C   0  0  3  0  0  0  0  0  0  0  0  0
    4.2690   -0.4074    0.0000 C   0  0  3  0  0  0  0  0  0  0  0  0
    3.4030    1.0926    0.0000 C   0  0  3  0  0  0  0  0  0  0  0  0
    3.4030    0.0926    0.0000 C   0  0  3  0  0  0  0  0  0  0  0  0
    2.5369    1.5926    0.0000 C   0  0  0  0  0  0  0  0  0  0  0  0
   10.9452    0.2362    0.0000 H   0  0  0  0  0  0  0  0  0  0  0  0
    9.0732   -1.3884    0.0000 H   0  0  0  0  0  0  0  0  0  0  0  0
   10.9214    0.6712    0.0000 H   0  0  0  0  0  0  0  0  0  0  0  0
   11.2904   -1.6627    0.0000 H   0  0  0  0  0  0  0  0  0  0  0  0
   10.0773    1.8159    0.0000 H   0  0  0  0  0  0  0  0  0  0  0  0
   11.6282   -1.0065    0.0000 H   0  0  0  0  0  0  0  0  0  0  0  0
   11.4728   -0.1917    0.0000 H   0  0  0  0  0  0  0  0  0  0  0  0
    8.0336    0.1485    0.0000 H   0  0  0  0  0  0  0  0  0  0  0  0
    8.4188   -0.5493    0.0000 H   0  0  0  0  0  0  0  0  0  0  0  0
    8.8902   -1.8714    0.0000 H   0  0  0  0  0  0  0  0  0  0  0  0
    8.4605    1.6155    0.0000 H   0  0  0  0  0  0  0  0  0  0  0  0
    8.0488    0.9330    0.0000 H   0  0  0  0  0  0  0  0  0  0  0  0
    8.3232   -0.4279    0.0000 H   0  0  0  0  0  0  0  0  0  0  0  0
    8.0800   -1.2703    0.0000 H   0  0  0  0  0  0  0  0  0  0  0  0
    8.9224   -1.5135    0.0000 H   0  0  0  0  0  0  0  0  0  0  0  0
   11.5059    0.8956    0.0000 H   0  0  0  0  0  0  0  0  0  0  0  0
   11.9261    1.5743    0.0000 H   0  0  0  0  0  0  0  0  0  0  0  0
    8.0628    3.4036    0.0000 H   0  0  0  0  0  0  0  0  0  0  0  0
    8.1723   -1.9425    0.0000 H   0  0  0  0  0  0  0  0  0  0  0  0
    7.6826   -2.6698    0.0000 H   0  0  0  0  0  0  0  0  0  0  0  0
    8.4098   -3.1596    0.0000 H   0  0  0  0  0  0  0  0  0  0  0  0
   11.8847    2.8235    0.0000 H   0  0  0  0  0  0  0  0  0  0  0  0
   11.3860   -3.8179    0.0000 H   0  0  0  0  0  0  0  0  0  0  0  0
   11.0753   -3.0839    0.0000 H   0  0  0  0  0  0  0  0  0  0  0  0
    8.3653    2.6043    0.0000 H   0  0  0  0  0  0  0  0  0  0  0  0
    8.1286    1.7600    0.0000 H   0  0  0  0  0  0  0  0  0  0  0  0
    8.9728    1.5233    0.0000 H   0  0  0  0  0  0  0  0  0  0  0  0
   11.0859    4.0262    0.0000 H   0  0  0  0  0  0  0  0  0  0  0  0
   10.7029    4.7265    0.0000 H   0  0  0  0  0  0  0  0  0  0  0  0
    8.3965    4.7621    0.0000 H   0  0  0  0  0  0  0  0  0  0  0  0
    7.9920    4.0739    0.0000 H   0  0  0  0  0  0  0  0  0  0  0  0
   10.0914    5.0098    0.0000 H   0  0  0  0  0  0  0  0  0  0  0  0
   10.8093   -5.2327    0.0000 H   0  0  0  0  0  0  0  0  0  0  0  0
   11.2896   -4.5966    0.0000 H   0  0  0  0  0  0  0  0  0  0  0  0
    9.1786   -5.2600    0.0000 H   0  0  0  0  0  0  0  0  0  0  0  0
    8.3588   -4.2339    0.0000 H   0  0  0  0  0  0  0  0  0  0  0  0
    8.6695   -4.9679    0.0000 H   0  0  0  0  0  0  0  0  0  0  0  0
    6.8671    2.4726    0.0000 H   0  0  0  0  0  0  0  0  0  0  0  0
    9.0115   -5.9346    0.0000 H   0  0  0  0  0  0  0  0  0  0  0  0
    9.5506   -6.6261    0.0000 H   0  0  0  0  0  0  0  0  0  0  0  0
   10.2421   -6.0869    0.0000 H   0  0  0  0  0  0  0  0  0  0  0  0
   10.1062    6.0108    0.0000 H   0  0  0  0  0  0  0  0  0  0  0  0
    5.4641    2.2826    0.0000 H   0  0  0  0  0  0  0  0  0  0  0  0
    4.5981    3.4026    0.0000 H   0  0  0  0  0  0  0  0  0  0  0  0
    6.3996    5.0676    0.0000 H   0  0  0  0  0  0  0  0  0  0  0  0
    5.6025    5.0676    0.0000 H   0  0  0  0  0  0  0  0  0  0  0  0
    5.1350    4.7126    0.0000 H   0  0  0  0  0  0  0  0  0  0  0  0
    5.6720    0.7826    0.0000 H   0  0  0  0  0  0  0  0  0  0  0  0
    3.7320    2.9026    0.0000 H   0  0  0  0  0  0  0  0  0  0  0  0
    4.2690    5.2126    0.0000 H   0  0  0  0  0  0  0  0  0  0  0  0
    5.1350   -0.5274    0.0000 H   0  0  0  0  0  0  0  0  0  0  0  0
    3.7320   -0.7174    0.0000 H   0  0  0  0  0  0  0  0  0  0  0  0
    3.4030    1.7126    0.0000 H   0  0  0  0  0  0  0  0  0  0  0  0
    3.4030   -0.5274    0.0000 H   0  0  0  0  0  0  0  0  0  0  0  0
    6.0010   -1.0274    0.0000 H   0  0  0  0  0  0  0  0  0  0  0  0
    2.8469    2.1296    0.0000 H   0  0  0  0  0  0  0  0  0  0  0  0
    2.0000    1.9026    0.0000 H   0  0  0  0  0  0  0  0  0  0  0  0
    2.2269    1.0557    0.0000 H   0  0  0  0  0  0  0  0  0  0  0  0
    3.7320   -1.7174    0.0000 H   0  0  0  0  0  0  0  0  0  0  0  0
    2.0000   -0.0974    0.0000 H   0  0  0  0  0  0  0  0  0  0  0  0
  1 17  1  0  0  0  0
  1 24  1  0  0  0  0
  2 24  1  0  0  0  0
  2 38  1  0  0  0  0
  3 28  1  0  0  0  0
  3 39  1  0  0  0  0
  4 35  1  0  0  0  0
  4 92  1  0  0  0  0
  5 39  1  0  0  0  0
  5 43  1  0  0  0  0
  6 41  1  0  0  0  0
  6 45  1  0  0  0  0
  7 42  1  0  0  0  0
  7 99  1  0  0  0  0
  8 44  1  0  0  0  0
  8100  1  0  0  0  0
  9 45  1  0  0  0  0
  9 48  1  0  0  0  0
 10 46  1  0  0  0  0
 10105  1  0  0  0  0
 11 47  1  0  0  0  0
 11109  1  0  0  0  0
 12 49  1  0  0  0  0
 12110  1  0  0  0  0
 13 14  1  0  0  0  0
 13 15  1  0  0  0  0
 13 20  1  0  0  0  0
 13 25  1  0  0  0  0
 14 16  1  0  0  0  0
 14 19  1  0  0  0  0
 14 51  1  0  0  0  0
 15 17  1  0  0  0  0
 15 21  1  0  0  0  0
 15 52  1  0  0  0  0
 16 18  1  0  0  0  0
 16 26  1  0  0  0  0
 16 53  1  0  0  0  0
 17 19  1  0  0  0  0
 17 54  1  0  0  0  0
 18 22  1  0  0  0  0
 18 23  1  0  0  0  0
 18 55  1  0  0  0  0
 19 56  1  0  0  0  0
 19 57  1  0  0  0  0
 20 22  1  0  0  0  0
 20 58  1  0  0  0  0
 20 59  1  0  0  0  0
 21 24  1  0  0  0  0
 21 29  1  0  0  0  0
 21 60  1  0  0  0  0
 22 61  1  0  0  0  0
 22 62  1  0  0  0  0
 23 27  1  0  0  0  0
 23 28  1  0  0  0  0
 23 32  1  0  0  0  0
 24 31  1  0  0  0  0
 25 63  1  0  0  0  0
 25 64  1  0  0  0  0
 25 65  1  0  0  0  0
 26 30  1  0  0  0  0
 26 66  1  0  0  0  0
 26 67  1  0  0  0  0
 27 30  2  0  0  0  0
 27 33  1  0  0  0  0
 28 34  1  0  0  0  0
 28 68  1  0  0  0  0
 29 69  1  0  0  0  0
 29 70  1  0  0  0  0
 29 71  1  0  0  0  0
 30 72  1  0  0  0  0
 31 36  1  0  0  0  0
 31 73  1  0  0  0  0
 31 74  1  0  0  0  0
 32 75  1  0  0  0  0
 32 76  1  0  0  0  0
 32 77  1  0  0  0  0
 33 35  1  0  0  0  0
 33 78  1  0  0  0  0
 33 79  1  0  0  0  0
 34 35  1  0  0  0  0
 34 80  1  0  0  0  0
 34 81  1  0  0  0  0
 35 82  1  0  0  0  0
 36 37  1  0  0  0  0
 36 83  1  0  0  0  0
 36 84  1  0  0  0  0
 37 38  1  0  0  0  0
 37 40  1  0  0  0  0
 37 85  1  0  0  0  0
 38 86  1  0  0  0  0
 38 87  1  0  0  0  0
 39 41  1  0  0  0  0
 39 88  1  0  0  0  0
 40 89  1  0  0  0  0
 40 90  1  0  0  0  0
 40 91  1  0  0  0  0
 41 42  1  0  0  0  0
 41 93  1  0  0  0  0
 42 44  1  0  0  0  0
 42 94  1  0  0  0  0
 43 44  1  0  0  0  0
 43 95  1  0  0  0  0
 43 96  1  0  0  0  0
 44 97  1  0  0  0  0
 45 46  1  0  0  0  0
 45 98  1  0  0  0  0
 46 47  1  0  0  0  0
 46101  1  0  0  0  0
 47 49  1  0  0  0  0
 47102  1  0  0  0  0
 48 49  1  0  0  0  0
 48 50  1  0  0  0  0
 48103  1  0  0  0  0
 49104  1  0  0  0  0
 50106  1  0  0  0  0
 50107  1  0  0  0  0
 50108  1  0  0  0  0
M  END
>  <PUBCHEM_COMPOUND_CID>
3509806

>  <PUBCHEM_COMPOUND_CANONICALIZED>
1

>  <PUBCHEM_CACTVS_COMPLEXITY>
1300

>  <PUBCHEM_CACTVS_HBOND_ACCEPTOR>
12

>  <PUBCHEM_CACTVS_HBOND_DONOR>
6

>  <PUBCHEM_CACTVS_ROTATABLE_BOND>
4

>  <PUBCHEM_CACTVS_SUBSKEYS>
AAADcfB8PAAAAAAAAAAAAAAAAAAAAaIAAAA0aJECAAASAGCAAAAAGgAACAAADxSwgAMCCAAABgCAAiBCAAAAAAAgAAAACAAAAAgREAIAAQAiQAAFwAAPAAPA4PwPgAAAAAAAAADAAAQQADAAAYAADAAAAA==

>  <PUBCHEM_IUPAC_OPENEYE_NAME>
2-[4,5-dihydroxy-2-(16-hydroxy-5',7,9,13-tetramethyl-spiro[5-oxapentacyclo[10.8.0.02,9.04,8.013,18]icos-18-ene-6,2'-tetrahydropyran]-14-yl)oxy-tetrahydropyran-3-yl]oxy-6-methyl-tetrahydropyran-3,4,5-triol

>  <PUBCHEM_IUPAC_CAS_NAME>
2-[[4,5-dihydroxy-2-[(16-hydroxy-5',7,9,13-tetramethyl-14-spiro[5-oxapentacyclo[10.8.0.02,9.04,8.013,18]eicos-18-ene-6,2'-oxane]yl)oxy]-3-oxanyl]oxy]-6-methyloxane-3,4,5-triol

>  <PUBCHEM_IUPAC_NAME_MARKUP>
2-[4,5-dihydroxy-2-(16-hydroxy-5&apos;,7,9,13-tetramethylspiro[5-oxapentacyclo[10.8.0.0<SUP>2,9</SUP>.0<SUP>4,8</SUP>.0<SUP>13,18</SUP>]icos-18-ene-6,2&apos;-oxane]-14-yl)oxyoxan-3-yl]oxy-6-methyloxane-3,4,5-triol

>  <PUBCHEM_IUPAC_NAME>
2-[4,5-dihydroxy-2-(16-hydroxy-5',7,9,13-tetramethylspiro[5-oxapentacyclo[10.8.0.02,9.04,8.013,18]icos-18-ene-6,2'-oxane]-14-yl)oxyoxan-3-yl]oxy-6-methyloxane-3,4,5-triol

>  <PUBCHEM_IUPAC_SYSTEMATIC_NAME>
2-[4,5-bis(oxidanyl)-2-(5',7,9,13-tetramethyl-16-oxidanyl-spiro[5-oxapentacyclo[10.8.0.02,9.04,8.013,18]icos-18-ene-6,2'-oxane]-14-yl)oxy-oxan-3-yl]oxy-6-methyl-oxane-3,4,5-triol

>  <PUBCHEM_IUPAC_TRADITIONAL_NAME>
2-[4,5-dihydroxy-2-(16-hydroxy-5',7,9,13-tetramethyl-spiro[5-oxapentacyclo[10.8.0.02,9.04,8.013,18]eicos-18-ene-6,2'-tetrahydropyran]-14-yl)oxy-tetrahydropyran-3-yl]oxy-6-methyl-tetrahydropyran-3,4,5-triol

>  <PUBCHEM_IUPAC_INCHI>
InChI=1S/C38H60O12/c1-17-8-11-38(46-15-17)18(2)28-26(50-38)14-24-22-7-6-20-12-21(39)13-27(37(20,5)23(22)9-10-36(24,28)4)48-35-33(30(42)25(40)16-45-35)49-34-32(44)31(43)29(41)19(3)47-34/h6,17-19,21-35,39-44H,7-16H2,1-5H3

>  <PUBCHEM_IUPAC_INCHIKEY>
SKHJNNFXCKTDBG-UHFFFAOYSA-N

>  <PUBCHEM_XLOGP3_AA>
2.1

>  <PUBCHEM_EXACT_MASS>
708.40847734

>  <PUBCHEM_MOLECULAR_FORMULA>
C38H60O12

>  <PUBCHEM_MOLECULAR_WEIGHT>
708.9

>  <PUBCHEM_SMILES>
CC1CCC2(C(C3C(O2)CC4C3(CCC5C4CC=C6C5(C(CC(C6)O)OC7C(C(C(CO7)O)O)OC8C(C(C(C(O8)C)O)O)O)C)C)C)OC1

>  <PUBCHEM_OPENEYE_CAN_SMILES>
CC1CCC2(C(C3C(O2)CC4C3(CCC5C4CC=C6C5(C(CC(C6)O)OC7C(C(C(CO7)O)O)OC8C(C(C(C(O8)C)O)O)O)C)C)C)OC1

>  <PUBCHEM_OPENEYE_ISO_SMILES>
CC1CCC2(C(C3C(O2)CC4C3(CCC5C4CC=C6C5(C(CC(C6)O)OC7C(C(C(CO7)O)O)OC8C(C(C(C(O8)C)O)O)O)C)C)C)OC1

>  <PUBCHEM_CACTVS_TPSA>
177

>  <PUBCHEM_MONOISOTOPIC_WEIGHT>
708.40847734

>  <PUBCHEM_TOTAL_CHARGE>
0

>  <PUBCHEM_HEAVY_ATOM_COUNT>
50

>  <PUBCHEM_ATOM_DEF_STEREO_COUNT>
0

>  <PUBCHEM_ATOM_UDEF_STEREO_COUNT>
21

>  <PUBCHEM_BOND_DEF_STEREO_COUNT>
0

>  <PUBCHEM_BOND_UDEF_STEREO_COUNT>
0

>  <PUBCHEM_ISOTOPIC_ATOM_COUNT>
0

>  <PUBCHEM_COMPONENT_COUNT>
1

>  <PUBCHEM_CACTVS_TAUTO_COUNT>
-1

>  <PUBCHEM_COORDINATE_TYPE>
1
5
255

>  <PUBCHEM_BONDANNOTATIONS>
46  10  3
47  11  3
49  12  3
13  25  3
14  19  3
15  21  3
16  26  3
17  19  3
18  22  3
21  29  3
23  32  3
24  31  3
28  3  3
39  3  3
37  40  3
35  4  3
48  50  3
41  6  3
45  6  3
42  7  3
44  8  3

$$$$
