426059
 OpenBabel06082519392D

161169  0  0  1  0  0  0  0  0999 V2000
    4.6888    3.9136    0.0000 O   0  0  0  0  0  0  0  0  0  0  0  0
    2.8574    3.2054    0.0000 O   0  0  0  0  0  0  0  0  0  0  0  0
   11.1168   -1.4409    0.0000 O   0  0  0  0  0  0  0  0  0  0  0  0
   10.2508   -2.9409    0.0000 O   0  0  0  0  0  0  0  0  0  0  0  0
    3.3220    7.7448    0.0000 O   0  0  0  0  0  0  0  0  0  0  0  0
   12.8489   -2.4409    0.0000 O   0  0  0  0  0  0  0  0  0  0  0  0
   12.8489   -4.4409    0.0000 O   0  0  0  0  0  0  0  0  0  0  0  0
   11.1168   -5.4409    0.0000 O   0  0  0  0  0  0  0  0  0  0  0  0
    8.5188   -3.9409    0.0000 O   0  0  0  0  0  0  0  0  0  0  0  0
    3.3168    9.4769    0.0000 O   0  0  0  0  0  0  0  0  0  0  0  0
    9.3848   -5.4409    0.0000 O   0  0  0  0  0  0  0  0  0  0  0  0
    5.3220    7.7508    0.0000 O   0  0  0  0  0  0  0  0  0  0  0  0
   11.1168   -7.4409    0.0000 O   0  0  0  0  0  0  0  0  0  0  0  0
    6.3168    9.4858    0.0000 O   0  0  0  0  0  0  0  0  0  0  0  0
    5.3116   11.2149    0.0000 O   0  0  0  0  0  0  0  0  0  0  0  0
    9.3848   -8.4409    0.0000 O   0  0  0  0  0  0  0  0  0  0  0  0
    7.6527   -7.4409    0.0000 O   0  0  0  0  0  0  0  0  0  0  0  0
    2.3116   11.2059    0.0000 O   0  0  0  0  0  0  0  0  0  0  0  0
   10.2508   -8.9409    0.0000 O   0  0  0  0  0  0  0  0  0  0  0  0
    7.6527   -4.4409    0.0000 O   0  0  0  0  0  0  0  0  0  0  0  0
   12.8489   -8.4409    0.0000 O   0  0  0  0  0  0  0  0  0  0  0  0
   12.8489  -10.4409    0.0000 O   0  0  0  0  0  0  0  0  0  0  0  0
   11.1168  -11.4409    0.0000 O   0  0  0  0  0  0  0  0  0  0  0  0
    8.5188   -9.9409    0.0000 O   0  0  0  0  0  0  0  0  0  0  0  0
    5.7648    1.6829    0.0000 C   0  0  3  0  0  0  0  0  0  0  0  0
    6.6289    2.1862    0.0000 C   0  0  3  0  0  0  0  0  0  0  0  0
    7.4968    1.6896    0.0000 C   0  0  3  0  0  0  0  0  0  0  0  0
    5.0252    2.3471    0.0000 C   0  0  3  0  0  0  0  0  0  0  0  0
    7.5007    0.6896    0.0000 C   0  0  3  0  0  0  0  0  0  0  0  0
    8.3967    0.1584    0.0000 C   0  0  3  0  0  0  0  0  0  0  0  0
    5.4268    3.2565    0.0000 C   0  0  3  0  0  0  0  0  0  0  0  0
    6.4159    3.1572    0.0000 C   0  0  0  0  0  0  0  0  0  0  0  0
    5.7687    0.6829    0.0000 C   0  0  0  0  0  0  0  0  0  0  0  0
    6.6366    0.1862    0.0000 C   0  0  0  0  0  0  0  0  0  0  0  0
    9.3008    0.6757    0.0000 C   0  0  3  0  0  0  0  0  0  0  0  0
    4.0424    2.4500    0.0000 C   0  0  3  0  0  0  0  0  0  0  0  0
    8.3887    2.2277    0.0000 C   0  0  0  0  0  0  0  0  0  0  0  0
    9.2968    1.7173    0.0000 C   0  0  0  0  0  0  0  0  0  0  0  0
    4.9007    1.1796    0.0000 C   0  0  0  0  0  0  0  0  0  0  0  0
    3.8349    3.4162    0.0000 C   0  0  3  0  0  0  0  0  0  0  0  0
    8.3758   -0.9264    0.0000 C   0  0  0  0  0  0  0  0  0  0  0  0
   10.2466    0.1441    0.0000 C   0  0  0  0  0  0  0  0  0  0  0  0
    7.5288   -0.3383    0.0000 C   0  0  0  0  0  0  0  0  0  0  0  0
    9.3091   -1.4798    0.0000 C   0  0  0  0  0  0  0  0  0  0  0  0
   10.2508   -0.9409    0.0000 C   0  0  3  0  0  0  0  0  0  0  0  0
    3.3742    1.7060    0.0000 C   0  0  0  0  0  0  0  0  0  0  0  0
    3.3323    4.2807    0.0000 C   0  0  0  0  0  0  0  0  0  0  0  0
    3.8297    5.1482    0.0000 C   0  0  0  0  0  0  0  0  0  0  0  0
    3.3271    6.0128    0.0000 C   0  0  3  0  0  0  0  0  0  0  0  0
   11.1168   -2.4409    0.0000 C   0  0  3  0  0  0  0  0  0  0  0  0
   11.9829   -2.9409    0.0000 C   0  0  3  0  0  0  0  0  0  0  0  0
    3.8245    6.8803    0.0000 C   0  0  0  0  0  0  0  0  0  0  0  0
    2.3271    6.0098    0.0000 C   0  0  0  0  0  0  0  0  0  0  0  0
   11.9829   -3.9409    0.0000 C   0  0  3  0  0  0  0  0  0  0  0  0
   10.2508   -3.9409    0.0000 C   0  0  3  0  0  0  0  0  0  0  0  0
   11.1168   -4.4409    0.0000 C   0  0  3  0  0  0  0  0  0  0  0  0
    9.3848   -4.4409    0.0000 C   0  0  0  0  0  0  0  0  0  0  0  0
    3.8194    8.6123    0.0000 C   0  0  3  0  0  0  0  0  0  0  0  0
    4.8194    8.6153    0.0000 C   0  0  3  0  0  0  0  0  0  0  0  0
   10.2508   -5.9409    0.0000 C   0  0  3  0  0  0  0  0  0  0  0  0
    5.3168    9.4828    0.0000 C   0  0  3  0  0  0  0  0  0  0  0  0
   10.2508   -6.9409    0.0000 C   0  0  3  0  0  0  0  0  0  0  0  0
    3.8142   10.3444    0.0000 C   0  0  3  0  0  0  0  0  0  0  0  0
    4.8142   10.3474    0.0000 C   0  0  3  0  0  0  0  0  0  0  0  0
    9.3848   -7.4409    0.0000 C   0  0  3  0  0  0  0  0  0  0  0  0
    8.5188   -5.9409    0.0000 C   0  0  3  0  0  0  0  0  0  0  0  0
    8.5188   -6.9409    0.0000 C   0  0  3  0  0  0  0  0  0  0  0  0
    3.3116   11.2089    0.0000 C   0  0  0  0  0  0  0  0  0  0  0  0
    7.6527   -5.4409    0.0000 C   0  0  0  0  0  0  0  0  0  0  0  0
   11.1168   -8.4409    0.0000 C   0  0  3  0  0  0  0  0  0  0  0  0
   11.9829   -8.9409    0.0000 C   0  0  3  0  0  0  0  0  0  0  0  0
   11.9829   -9.9409    0.0000 C   0  0  3  0  0  0  0  0  0  0  0  0
   10.2508   -9.9409    0.0000 C   0  0  3  0  0  0  0  0  0  0  0  0
   11.1168  -10.4409    0.0000 C   0  0  3  0  0  0  0  0  0  0  0  0
    9.3848  -10.4409    0.0000 C   0  0  0  0  0  0  0  0  0  0  0  0
    7.1286    2.5532    0.0000 H   0  0  0  0  0  0  0  0  0  0  0  0
    7.4897    2.3095    0.0000 H   0  0  0  0  0  0  0  0  0  0  0  0
    4.7735    1.7805    0.0000 H   0  0  0  0  0  0  0  0  0  0  0  0
    8.0388    0.9975    0.0000 H   0  0  0  0  0  0  0  0  0  0  0  0
    5.6761    3.8242    0.0000 H   0  0  0  0  0  0  0  0  0  0  0  0
    7.0322    3.2257    0.0000 H   0  0  0  0  0  0  0  0  0  0  0  0
    6.4127    3.7772    0.0000 H   0  0  0  0  0  0  0  0  0  0  0  0
    5.1577    0.7882    0.0000 H   0  0  0  0  0  0  0  0  0  0  0  0
    5.5589    0.0995    0.0000 H   0  0  0  0  0  0  0  0  0  0  0  0
    6.2399   -0.2902    0.0000 H   0  0  0  0  0  0  0  0  0  0  0  0
    7.0370   -0.2872    0.0000 H   0  0  0  0  0  0  0  0  0  0  0  0
    9.8353    0.9898    0.0000 H   0  0  0  0  0  0  0  0  0  0  0  0
    3.4433    2.6095    0.0000 H   0  0  0  0  0  0  0  0  0  0  0  0
    8.7805    2.7082    0.0000 H   0  0  0  0  0  0  0  0  0  0  0  0
    7.9823    2.6959    0.0000 H   0  0  0  0  0  0  0  0  0  0  0  0
    9.9080    1.6136    0.0000 H   0  0  0  0  0  0  0  0  0  0  0  0
    9.5036    2.3018    0.0000 H   0  0  0  0  0  0  0  0  0  0  0  0
    4.5886    1.7153    0.0000 H   0  0  0  0  0  0  0  0  0  0  0  0
    4.3650    0.8675    0.0000 H   0  0  0  0  0  0  0  0  0  0  0  0
    5.2128    0.6438    0.0000 H   0  0  0  0  0  0  0  0  0  0  0  0
    7.7671   -0.8086    0.0000 H   0  0  0  0  0  0  0  0  0  0  0  0
    8.1555   -1.5060    0.0000 H   0  0  0  0  0  0  0  0  0  0  0  0
   10.8579    0.0404    0.0000 H   0  0  0  0  0  0  0  0  0  0  0  0
   10.4534    0.7286    0.0000 H   0  0  0  0  0  0  0  0  0  0  0  0
    7.2208    0.1998    0.0000 H   0  0  0  0  0  0  0  0  0  0  0  0
    6.9906   -0.6462    0.0000 H   0  0  0  0  0  0  0  0  0  0  0  0
    7.8367   -0.8764    0.0000 H   0  0  0  0  0  0  0  0  0  0  0  0
    8.9063   -1.9511    0.0000 H   0  0  0  0  0  0  0  0  0  0  0  0
    9.7046   -1.9572    0.0000 H   0  0  0  0  0  0  0  0  0  0  0  0
   10.7871   -0.6298    0.0000 H   0  0  0  0  0  0  0  0  0  0  0  0
    2.9129    2.1203    0.0000 H   0  0  0  0  0  0  0  0  0  0  0  0
    2.9599    1.2448    0.0000 H   0  0  0  0  0  0  0  0  0  0  0  0
    3.8355    1.2918    0.0000 H   0  0  0  0  0  0  0  0  0  0  0  0
    2.8562    4.6778    0.0000 H   0  0  0  0  0  0  0  0  0  0  0  0
    2.8586    3.8808    0.0000 H   0  0  0  0  0  0  0  0  0  0  0  0
    2.4411    3.6649    0.0000 H   0  0  0  0  0  0  0  0  0  0  0  0
    4.3059    4.7511    0.0000 H   0  0  0  0  0  0  0  0  0  0  0  0
    4.3035    5.5482    0.0000 H   0  0  0  0  0  0  0  0  0  0  0  0
    3.0155    6.5488    0.0000 H   0  0  0  0  0  0  0  0  0  0  0  0
   10.5799   -2.1309    0.0000 H   0  0  0  0  0  0  0  0  0  0  0  0
   12.5198   -3.2509    0.0000 H   0  0  0  0  0  0  0  0  0  0  0  0
    4.3007    6.4832    0.0000 H   0  0  0  0  0  0  0  0  0  0  0  0
    4.2983    7.2802    0.0000 H   0  0  0  0  0  0  0  0  0  0  0  0
    2.3253    6.6298    0.0000 H   0  0  0  0  0  0  0  0  0  0  0  0
    1.7071    6.0079    0.0000 H   0  0  0  0  0  0  0  0  0  0  0  0
    2.3290    5.3898    0.0000 H   0  0  0  0  0  0  0  0  0  0  0  0
   11.9829   -4.5609    0.0000 H   0  0  0  0  0  0  0  0  0  0  0  0
    9.7139   -3.6309    0.0000 H   0  0  0  0  0  0  0  0  0  0  0  0
   10.5799   -4.7509    0.0000 H   0  0  0  0  0  0  0  0  0  0  0  0
   12.8489   -1.8209    0.0000 H   0  0  0  0  0  0  0  0  0  0  0  0
    8.9862   -4.9158    0.0000 H   0  0  0  0  0  0  0  0  0  0  0  0
    9.7833   -4.9158    0.0000 H   0  0  0  0  0  0  0  0  0  0  0  0
   13.3858   -4.1309    0.0000 H   0  0  0  0  0  0  0  0  0  0  0  0
    3.1994    8.6105    0.0000 H   0  0  0  0  0  0  0  0  0  0  0  0
    4.5110    8.0775    0.0000 H   0  0  0  0  0  0  0  0  0  0  0  0
   10.7877   -6.2509    0.0000 H   0  0  0  0  0  0  0  0  0  0  0  0
    8.5188   -3.3209    0.0000 H   0  0  0  0  0  0  0  0  0  0  0  0
    5.6284    8.9468    0.0000 H   0  0  0  0  0  0  0  0  0  0  0  0
   10.2508   -7.5609    0.0000 H   0  0  0  0  0  0  0  0  0  0  0  0
    3.1942   10.3425    0.0000 H   0  0  0  0  0  0  0  0  0  0  0  0
    5.4342   10.3492    0.0000 H   0  0  0  0  0  0  0  0  0  0  0  0
    8.8478   -7.7509    0.0000 H   0  0  0  0  0  0  0  0  0  0  0  0
    5.9419    7.7526    0.0000 H   0  0  0  0  0  0  0  0  0  0  0  0
    8.5188   -5.3209    0.0000 H   0  0  0  0  0  0  0  0  0  0  0  0
    7.9818   -6.6309    0.0000 H   0  0  0  0  0  0  0  0  0  0  0  0
    3.8936   11.4227    0.0000 H   0  0  0  0  0  0  0  0  0  0  0  0
    3.2021   11.8192    0.0000 H   0  0  0  0  0  0  0  0  0  0  0  0
    6.6252   10.0237    0.0000 H   0  0  0  0  0  0  0  0  0  0  0  0
    5.0000   11.7509    0.0000 H   0  0  0  0  0  0  0  0  0  0  0  0
    7.0421   -5.3332    0.0000 H   0  0  0  0  0  0  0  0  0  0  0  0
    7.4407   -6.0235    0.0000 H   0  0  0  0  0  0  0  0  0  0  0  0
   10.5799   -8.1309    0.0000 H   0  0  0  0  0  0  0  0  0  0  0  0
    8.8478   -8.7509    0.0000 H   0  0  0  0  0  0  0  0  0  0  0  0
    7.1158   -7.1309    0.0000 H   0  0  0  0  0  0  0  0  0  0  0  0
    2.0000   11.7419    0.0000 H   0  0  0  0  0  0  0  0  0  0  0  0
   12.5198   -9.2509    0.0000 H   0  0  0  0  0  0  0  0  0  0  0  0
   11.9829  -10.5609    0.0000 H   0  0  0  0  0  0  0  0  0  0  0  0
    7.1158   -4.1309    0.0000 H   0  0  0  0  0  0  0  0  0  0  0  0
    9.7139   -9.6309    0.0000 H   0  0  0  0  0  0  0  0  0  0  0  0
   10.5799  -10.7509    0.0000 H   0  0  0  0  0  0  0  0  0  0  0  0
   13.3858   -8.7509    0.0000 H   0  0  0  0  0  0  0  0  0  0  0  0
    8.9862  -10.9158    0.0000 H   0  0  0  0  0  0  0  0  0  0  0  0
    9.7833  -10.9158    0.0000 H   0  0  0  0  0  0  0  0  0  0  0  0
   12.8489  -11.0609    0.0000 H   0  0  0  0  0  0  0  0  0  0  0  0
   10.5799  -11.7509    0.0000 H   0  0  0  0  0  0  0  0  0  0  0  0
    7.9818  -10.2509    0.0000 H   0  0  0  0  0  0  0  0  0  0  0  0
  1 31  1  0  0  0  0
  1 40  1  0  0  0  0
  2 40  1  0  0  0  0
  2111  1  0  0  0  0
  3 45  1  0  0  0  0
  3 50  1  0  0  0  0
  4 50  1  0  0  0  0
  4 55  1  0  0  0  0
  5 52  1  0  0  0  0
  5 58  1  0  0  0  0
  6 51  1  0  0  0  0
  6125  1  0  0  0  0
  7 54  1  0  0  0  0
  7128  1  0  0  0  0
  8 56  1  0  0  0  0
  8 60  1  0  0  0  0
  9 57  1  0  0  0  0
  9132  1  0  0  0  0
 10 58  1  0  0  0  0
 10 63  1  0  0  0  0
 11 60  1  0  0  0  0
 11 66  1  0  0  0  0
 12 59  1  0  0  0  0
 12138  1  0  0  0  0
 13 62  1  0  0  0  0
 13 70  1  0  0  0  0
 14 61  1  0  0  0  0
 14143  1  0  0  0  0
 15 64  1  0  0  0  0
 15144  1  0  0  0  0
 16 65  1  0  0  0  0
 16148  1  0  0  0  0
 17 67  1  0  0  0  0
 17149  1  0  0  0  0
 18 68  1  0  0  0  0
 18150  1  0  0  0  0
 19 70  1  0  0  0  0
 19 73  1  0  0  0  0
 20 69  1  0  0  0  0
 20153  1  0  0  0  0
 21 71  1  0  0  0  0
 21156  1  0  0  0  0
 22 72  1  0  0  0  0
 22159  1  0  0  0  0
 23 74  1  0  0  0  0
 23160  1  0  0  0  0
 24 75  1  0  0  0  0
 24161  1  0  0  0  0
 25 26  1  0  0  0  0
 25 28  1  0  0  0  0
 25 33  1  0  0  0  0
 25 39  1  0  0  0  0
 26 27  1  0  0  0  0
 26 32  1  0  0  0  0
 26 76  1  0  0  0  0
 27 29  1  0  0  0  0
 27 37  1  0  0  0  0
 27 77  1  0  0  0  0
 28 31  1  0  0  0  0
 28 36  1  0  0  0  0
 28 78  1  0  0  0  0
 29 30  1  0  0  0  0
 29 34  1  0  0  0  0
 29 79  1  0  0  0  0
 30 35  1  0  0  0  0
 30 41  1  0  0  0  0
 30 43  1  0  0  0  0
 31 32  1  0  0  0  0
 31 80  1  0  0  0  0
 32 81  1  0  0  0  0
 32 82  1  0  0  0  0
 33 34  1  0  0  0  0
 33 83  1  0  0  0  0
 33 84  1  0  0  0  0
 34 85  1  0  0  0  0
 34 86  1  0  0  0  0
 35 38  1  0  0  0  0
 35 42  1  0  0  0  0
 35 87  1  0  0  0  0
 36 40  1  0  0  0  0
 36 46  1  0  0  0  0
 36 88  1  0  0  0  0
 37 38  1  0  0  0  0
 37 89  1  0  0  0  0
 37 90  1  0  0  0  0
 38 91  1  0  0  0  0
 38 92  1  0  0  0  0
 39 93  1  0  0  0  0
 39 94  1  0  0  0  0
 39 95  1  0  0  0  0
 40 47  1  0  0  0  0
 41 44  1  0  0  0  0
 41 96  1  0  0  0  0
 41 97  1  0  0  0  0
 42 45  1  0  0  0  0
 42 98  1  0  0  0  0
 42 99  1  0  0  0  0
 43100  1  0  0  0  0
 43101  1  0  0  0  0
 43102  1  0  0  0  0
 44 45  1  0  0  0  0
 44103  1  0  0  0  0
 44104  1  0  0  0  0
 45105  1  0  0  0  0
 46106  1  0  0  0  0
 46107  1  0  0  0  0
 46108  1  0  0  0  0
 47 48  1  0  0  0  0
 47109  1  0  0  0  0
 47110  1  0  0  0  0
 48 49  1  0  0  0  0
 48112  1  0  0  0  0
 48113  1  0  0  0  0
 49 52  1  0  0  0  0
 49 53  1  0  0  0  0
 49114  1  0  0  0  0
 50 51  1  0  0  0  0
 50115  1  0  0  0  0
 51 54  1  0  0  0  0
 51116  1  0  0  0  0
 52117  1  0  0  0  0
 52118  1  0  0  0  0
 53119  1  0  0  0  0
 53120  1  0  0  0  0
 53121  1  0  0  0  0
 54 56  1  0  0  0  0
 54122  1  0  0  0  0
 55 56  1  0  0  0  0
 55 57  1  0  0  0  0
 55123  1  0  0  0  0
 56124  1  0  0  0  0
 57126  1  0  0  0  0
 57127  1  0  0  0  0
 58 59  1  0  0  0  0
 58129  1  0  0  0  0
 59 61  1  0  0  0  0
 59130  1  0  0  0  0
 60 62  1  0  0  0  0
 60131  1  0  0  0  0
 61 64  1  0  0  0  0
 61133  1  0  0  0  0
 62 65  1  0  0  0  0
 62134  1  0  0  0  0
 63 64  1  0  0  0  0
 63 68  1  0  0  0  0
 63135  1  0  0  0  0
 64136  1  0  0  0  0
 65 67  1  0  0  0  0
 65137  1  0  0  0  0
 66 67  1  0  0  0  0
 66 69  1  0  0  0  0
 66139  1  0  0  0  0
 67140  1  0  0  0  0
 68141  1  0  0  0  0
 68142  1  0  0  0  0
 69145  1  0  0  0  0
 69146  1  0  0  0  0
 70 71  1  0  0  0  0
 70147  1  0  0  0  0
 71 72  1  0  0  0  0
 71151  1  0  0  0  0
 72 74  1  0  0  0  0
 72152  1  0  0  0  0
 73 74  1  0  0  0  0
 73 75  1  0  0  0  0
 73154  1  0  0  0  0
 74155  1  0  0  0  0
 75157  1  0  0  0  0
 75158  1  0  0  0  0
M  END
>  <PUBCHEM_COMPOUND_CID>
426059

>  <PUBCHEM_COMPOUND_CANONICALIZED>
1

>  <PUBCHEM_CACTVS_COMPLEXITY>
1880

>  <PUBCHEM_CACTVS_HBOND_ACCEPTOR>
24

>  <PUBCHEM_CACTVS_HBOND_DONOR>
15

>  <PUBCHEM_CACTVS_ROTATABLE_BOND>
16

>  <PUBCHEM_CACTVS_SUBSKEYS>
AAADcfB8PgAAAAAAAAAAAAAAAAAAAaIAAAA0aNEiAAASAGDAAAAAGgAACAAADxSwgAMCCAAABgAAAAAAAAAAAAAAAAAAAAAAAAAREAIAAAAiQAAFAAAHAAHA4PwPgAAAAAAAAADAAAYAACAAAYAADAAAAA==

>  <PUBCHEM_IUPAC_OPENEYE_NAME>
2-[4-[16-[5-[4,5-dihydroxy-6-(hydroxymethyl)-3-[3,4,5-trihydroxy-6-(hydroxymethyl)tetrahydropyran-2-yl]oxy-tetrahydropyran-2-yl]oxy-3,4-dihydroxy-6-(hydroxymethyl)tetrahydropyran-2-yl]oxy-6-hydroxy-7,9,13-trimethyl-5-oxapentacyclo[10.8.0.02,9.04,8.013,18]icosan-6-yl]-2-methyl-butoxy]-6-(hydroxymethyl)tetrahydropyran-3,4,5-triol

>  <PUBCHEM_IUPAC_CAS_NAME>
2-[4-[16-[[5-[[4,5-dihydroxy-6-(hydroxymethyl)-3-[[3,4,5-trihydroxy-6-(hydroxymethyl)-2-oxanyl]oxy]-2-oxanyl]oxy]-3,4-dihydroxy-6-(hydroxymethyl)-2-oxanyl]oxy]-6-hydroxy-7,9,13-trimethyl-5-oxapentacyclo[10.8.0.02,9.04,8.013,18]eicosan-6-yl]-2-methylbutoxy]-6-(hydroxymethyl)oxane-3,4,5-triol

>  <PUBCHEM_IUPAC_NAME_MARKUP>
2-[4-[16-[5-[4,5-dihydroxy-6-(hydroxymethyl)-3-[3,4,5-trihydroxy-6-(hydroxymethyl)oxan-2-yl]oxyoxan-2-yl]oxy-3,4-dihydroxy-6-(hydroxymethyl)oxan-2-yl]oxy-6-hydroxy-7,9,13-trimethyl-5-oxapentacyclo[10.8.0.0<SUP>2,9</SUP>.0<SUP>4,8</SUP>.0<SUP>13,18</SUP>]icosan-6-yl]-2-methylbutoxy]-6-(hydroxymethyl)oxane-3,4,5-triol

>  <PUBCHEM_IUPAC_NAME>
2-[4-[16-[5-[4,5-dihydroxy-6-(hydroxymethyl)-3-[3,4,5-trihydroxy-6-(hydroxymethyl)oxan-2-yl]oxyoxan-2-yl]oxy-3,4-dihydroxy-6-(hydroxymethyl)oxan-2-yl]oxy-6-hydroxy-7,9,13-trimethyl-5-oxapentacyclo[10.8.0.02,9.04,8.013,18]icosan-6-yl]-2-methylbutoxy]-6-(hydroxymethyl)oxane-3,4,5-triol

>  <PUBCHEM_IUPAC_SYSTEMATIC_NAME>
2-(hydroxymethyl)-6-[4-[16-[6-(hydroxymethyl)-5-[6-(hydroxymethyl)-3-[6-(hydroxymethyl)-3,4,5-tris(oxidanyl)oxan-2-yl]oxy-4,5-bis(oxidanyl)oxan-2-yl]oxy-3,4-bis(oxidanyl)oxan-2-yl]oxy-7,9,13-trimethyl-6-oxidanyl-5-oxapentacyclo[10.8.0.02,9.04,8.013,18]icosan-6-yl]-2-methyl-butoxy]oxane-3,4,5-triol

>  <PUBCHEM_IUPAC_TRADITIONAL_NAME>
2-[4-[16-[5-[4,5-dihydroxy-6-methylol-3-(3,4,5-trihydroxy-6-methylol-tetrahydropyran-2-yl)oxy-tetrahydropyran-2-yl]oxy-3,4-dihydroxy-6-methylol-tetrahydropyran-2-yl]oxy-6-hydroxy-7,9,13-trimethyl-5-oxapentacyclo[10.8.0.02,9.04,8.013,18]eicosan-6-yl]-2-methyl-butoxy]-6-methylol-tetrahydropyran-3,4,5-triol

>  <PUBCHEM_IUPAC_INCHI>
InChI=1S/C51H86O24/c1-20(19-67-45-40(63)36(59)33(56)28(15-52)69-45)7-12-51(66)21(2)32-27(75-51)14-26-24-6-5-22-13-23(8-10-49(22,3)25(24)9-11-50(26,32)4)68-46-42(65)39(62)43(31(18-55)72-46)73-48-44(38(61)35(58)30(17-54)71-48)74-47-41(64)37(60)34(57)29(16-53)70-47/h20-48,52-66H,5-19H2,1-4H3

>  <PUBCHEM_IUPAC_INCHIKEY>
OFEAYOYKIQKFSK-UHFFFAOYSA-N

>  <PUBCHEM_XLOGP3_AA>
-1.4

>  <PUBCHEM_EXACT_MASS>
1082.55090361

>  <PUBCHEM_MOLECULAR_FORMULA>
C51H86O24

>  <PUBCHEM_MOLECULAR_WEIGHT>
1083.2

>  <PUBCHEM_SMILES>
CC1C2C(CC3C2(CCC4C3CCC5C4(CCC(C5)OC6C(C(C(C(O6)CO)OC7C(C(C(C(O7)CO)O)O)OC8C(C(C(C(O8)CO)O)O)O)O)O)C)C)OC1(CCC(C)COC9C(C(C(C(O9)CO)O)O)O)O

>  <PUBCHEM_OPENEYE_CAN_SMILES>
CC1C2C(CC3C2(CCC4C3CCC5C4(CCC(C5)OC6C(C(C(C(O6)CO)OC7C(C(C(C(O7)CO)O)O)OC8C(C(C(C(O8)CO)O)O)O)O)O)C)C)OC1(CCC(C)COC9C(C(C(C(O9)CO)O)O)O)O

>  <PUBCHEM_OPENEYE_ISO_SMILES>
CC1C2C(CC3C2(CCC4C3CCC5C4(CCC(C5)OC6C(C(C(C(O6)CO)OC7C(C(C(C(O7)CO)O)O)OC8C(C(C(C(O8)CO)O)O)O)O)O)C)C)OC1(CCC(C)COC9C(C(C(C(O9)CO)O)O)O)O

>  <PUBCHEM_CACTVS_TPSA>
387

>  <PUBCHEM_MONOISOTOPIC_WEIGHT>
1082.55090361

>  <PUBCHEM_TOTAL_CHARGE>
0

>  <PUBCHEM_HEAVY_ATOM_COUNT>
75

>  <PUBCHEM_ATOM_DEF_STEREO_COUNT>
0

>  <PUBCHEM_ATOM_UDEF_STEREO_COUNT>
32

>  <PUBCHEM_BOND_DEF_STEREO_COUNT>
0

>  <PUBCHEM_BOND_UDEF_STEREO_COUNT>
0

>  <PUBCHEM_ISOTOPIC_ATOM_COUNT>
0

>  <PUBCHEM_COMPONENT_COUNT>
1

>  <PUBCHEM_CACTVS_TAUTO_COUNT>
-1

>  <PUBCHEM_COORDINATE_TYPE>
1
5
255

>  <PUBCHEM_BONDANNOTATIONS>
59  12  3
62  13  3
70  13  3
61  14  3
64  15  3
65  16  3
67  17  3
40  2  3
71  21  3
72  22  3
74  23  3
25  39  3
26  32  3
27  37  3
28  36  3
29  34  3
45  3  3
50  3  3
30  43  3
31  32  3
35  38  3
36  46  3
49  53  3
58  5  3
55  57  3
51  6  3
63  68  3
66  69  3
54  7  3
73  75  3
56  8  3
60  8  3

$$$$
