5281475
 OpenBabel06082519392D

 43 44  0  0  1  0  0  0  0  0999 V2000
    5.0228   -1.7514    0.0000 O   0  0  0  0  0  0  0  0  0  0  0  0
    3.5000    1.2204    0.0000 O   0  0  0  0  0  0  0  0  0  0  0  0
    3.5341   -2.7204    0.0000 O   0  0  0  0  0  0  0  0  0  0  0  0
    2.0000    0.3544    0.0000 O   0  0  0  0  0  0  0  0  0  0  0  0
    4.3660   -0.2796    0.0000 C   0  0  2  0  0  0  0  0  0  0  0  0
    5.2320   -0.7796    0.0000 C   0  0  2  0  0  0  0  0  0  0  0  0
    4.3660    0.7204    0.0000 C   0  0  1  0  0  0  0  0  0  0  0  0
    6.0981   -0.2796    0.0000 C   0  0  0  0  0  0  0  0  0  0  0  0
    3.6290   -0.9466    0.0000 C   0  0  0  0  0  0  0  0  0  0  0  0
    6.0981    0.7204    0.0000 C   0  0  0  0  0  0  0  0  0  0  0  0
    5.2320    1.2204    0.0000 C   0  0  0  0  0  0  0  0  0  0  0  0
    4.0341   -1.8544    0.0000 C   0  0  0  0  0  0  0  0  0  0  0  0
    5.2320    2.2204    0.0000 C   0  0  0  0  0  0  0  0  0  0  0  0
    6.0981    2.7204    0.0000 C   0  0  0  0  0  0  0  0  0  0  0  0
    6.9641    2.2204    0.0000 C   0  0  0  0  0  0  0  0  0  0  0  0
    6.9641    1.2204    0.0000 C   0  0  0  0  0  0  0  0  0  0  0  0
    2.6785   -1.2573    0.0000 C   0  0  0  0  0  0  0  0  0  0  0  0
    4.6415    1.2506    0.0000 C   0  0  0  0  0  0  0  0  0  0  0  0
    4.3660    2.7204    0.0000 C   0  0  0  0  0  0  0  0  0  0  0  0
    2.5000    1.2205    0.0000 C   0  0  0  0  0  0  0  0  0  0  0  0
    2.0000    2.0866    0.0000 C   0  0  0  0  0  0  0  0  0  0  0  0
    3.5890    0.0652    0.0000 H   0  0  0  0  0  0  0  0  0  0  0  0
    5.9191   -1.2801    0.0000 H   0  0  0  0  0  0  0  0  0  0  0  0
    4.3660    1.3404    0.0000 H   0  0  0  0  0  0  0  0  0  0  0  0
    6.3101   -0.8622    0.0000 H   0  0  0  0  0  0  0  0  0  0  0  0
    6.7086   -0.1719    0.0000 H   0  0  0  0  0  0  0  0  0  0  0  0
    5.8426    1.3281    0.0000 H   0  0  0  0  0  0  0  0  0  0  0  0
    6.4966    3.1954    0.0000 H   0  0  0  0  0  0  0  0  0  0  0  0
    5.6995    3.1954    0.0000 H   0  0  0  0  0  0  0  0  0  0  0  0
    7.5747    2.1128    0.0000 H   0  0  0  0  0  0  0  0  0  0  0  0
    7.1761    2.8031    0.0000 H   0  0  0  0  0  0  0  0  0  0  0  0
    7.5010    0.9104    0.0000 H   0  0  0  0  0  0  0  0  0  0  0  0
    2.2170   -0.8432    0.0000 H   0  0  0  0  0  0  0  0  0  0  0  0
    2.5506   -1.8640    0.0000 H   0  0  0  0  0  0  0  0  0  0  0  0
    4.8536    1.8332    0.0000 H   0  0  0  0  0  0  0  0  0  0  0  0
    4.0589    1.4626    0.0000 H   0  0  0  0  0  0  0  0  0  0  0  0
    4.4295    0.6680    0.0000 H   0  0  0  0  0  0  0  0  0  0  0  0
    4.6760    3.2574    0.0000 H   0  0  0  0  0  0  0  0  0  0  0  0
    3.8291    3.0304    0.0000 H   0  0  0  0  0  0  0  0  0  0  0  0
    4.0560    2.1835    0.0000 H   0  0  0  0  0  0  0  0  0  0  0  0
    2.5370    2.3965    0.0000 H   0  0  0  0  0  0  0  0  0  0  0  0
    1.6901    2.6235    0.0000 H   0  0  0  0  0  0  0  0  0  0  0  0
    1.4631    1.7766    0.0000 H   0  0  0  0  0  0  0  0  0  0  0  0
  1  6  1  0  0  0  0
  1 12  1  0  0  0  0
  2 20  1  0  0  0  0
  3 12  2  0  0  0  0
  4 20  2  0  0  0  0
  5  6  1  0  0  0  0
  5  7  1  0  0  0  0
  5  9  1  0  0  0  0
  5 22  1  6  0  0  0
  6  8  1  0  0  0  0
  6 23  1  1  0  0  0
  7  2  1  0  0  0  0
  7 11  1  0  0  0  0
  7 24  1  1  0  0  0
  8 10  1  0  0  0  0
  8 25  1  0  0  0  0
  8 26  1  0  0  0  0
  9 12  1  0  0  0  0
  9 17  2  0  0  0  0
 10 16  2  0  0  0  0
 10 18  1  0  0  0  0
 11 13  2  0  0  0  0
 11 27  1  0  0  0  0
 13 14  1  0  0  0  0
 13 19  1  0  0  0  0
 14 15  1  0  0  0  0
 14 28  1  0  0  0  0
 14 29  1  0  0  0  0
 15 16  1  0  0  0  0
 15 30  1  0  0  0  0
 15 31  1  0  0  0  0
 16 32  1  0  0  0  0
 17 33  1  0  0  0  0
 17 34  1  0  0  0  0
 18 35  1  0  0  0  0
 18 36  1  0  0  0  0
 18 37  1  0  0  0  0
 19 38  1  0  0  0  0
 19 39  1  0  0  0  0
 19 40  1  0  0  0  0
 20 21  1  0  0  0  0
 21 41  1  0  0  0  0
 21 42  1  0  0  0  0
 21 43  1  0  0  0  0
M  END
>  <PUBCHEM_COMPOUND_CID>
5281475

>  <PUBCHEM_COMPOUND_CANONICALIZED>
1

>  <PUBCHEM_CACTVS_COMPLEXITY>
527

>  <PUBCHEM_CACTVS_HBOND_ACCEPTOR>
4

>  <PUBCHEM_CACTVS_HBOND_DONOR>
0

>  <PUBCHEM_CACTVS_ROTATABLE_BOND>
2

>  <PUBCHEM_CACTVS_SUBSKEYS>
AAADceB4OAAAAAAAAAAAAAAAAAAAASAAAAAAAAAAAAAAAACAAAAAGgAAAAAADRSggAICCAAABACIAiDSCAAAAAAgAAAACAEAAEgABBIAIQACEAAFwAAIIIPKyCCOAAAAAAAAAAAAAAAAAAAAAAAAAAAAAA==

>  <PUBCHEM_IUPAC_OPENEYE_NAME>
[(3aR,4R,5E,9E,11aS)-6,10-dimethyl-3-methylene-2-oxo-3a,4,7,8,11,11a-hexahydrocyclodeca[b]furan-4-yl] acetate

>  <PUBCHEM_IUPAC_CAS_NAME>
acetic acid [(3aR,4R,5E,9E,11aS)-6,10-dimethyl-3-methylene-2-oxo-3a,4,7,8,11,11a-hexahydrocyclodeca[b]furan-4-yl] ester

>  <PUBCHEM_IUPAC_NAME_MARKUP>
[(3<I>a</I><I>R</I>,4<I>R</I>,5<I>E</I>,9<I>E</I>,11<I>a</I><I>S</I>)-6,10-dimethyl-3-methylidene-2-oxo-3<I>a</I>,4,7,8,11,11<I>a</I>-hexahydrocyclodeca[b]furan-4-yl] acetate

>  <PUBCHEM_IUPAC_NAME>
[(3aR,4R,5E,9E,11aS)-6,10-dimethyl-3-methylidene-2-oxo-3a,4,7,8,11,11a-hexahydrocyclodeca[b]furan-4-yl] acetate

>  <PUBCHEM_IUPAC_SYSTEMATIC_NAME>
[(3aR,4R,5E,9E,11aS)-6,10-dimethyl-3-methylidene-2-oxidanylidene-3a,4,7,8,11,11a-hexahydrocyclodeca[b]furan-4-yl] ethanoate

>  <PUBCHEM_IUPAC_TRADITIONAL_NAME>
acetic acid [(3aR,4R,5E,9E,11aS)-2-keto-6,10-dimethyl-3-methylene-3a,4,7,8,11,11a-hexahydrocyclodeca[b]furan-4-yl] ester

>  <PUBCHEM_IUPAC_INCHI>
InChI=1S/C17H22O4/c1-10-6-5-7-11(2)9-15-16(12(3)17(19)21-15)14(8-10)20-13(4)18/h7-8,14-16H,3,5-6,9H2,1-2,4H3/b10-8+,11-7+/t14-,15+,16+/m1/s1

>  <PUBCHEM_IUPAC_INCHIKEY>
ORJVLIMAQARNOU-SYQXSARVSA-N

>  <PUBCHEM_XLOGP3_AA>
2.4

>  <PUBCHEM_EXACT_MASS>
290.15180918

>  <PUBCHEM_MOLECULAR_FORMULA>
C17H22O4

>  <PUBCHEM_MOLECULAR_WEIGHT>
290.4

>  <PUBCHEM_SMILES>
C/C/1=C\[C@H]([C@H]2[C@H](C/C(=C/CC1)/C)OC(=O)C2=C)OC(=O)C

>  <PUBCHEM_OPENEYE_CAN_SMILES>
CC1=CC(C2C(CC(=CCC1)C)OC(=O)C2=C)OC(=O)C

>  <PUBCHEM_OPENEYE_ISO_SMILES>
C/C/1=C\[C@H]([C@H]2[C@H](C/C(=C/CC1)/C)OC(=O)C2=C)OC(=O)C

>  <PUBCHEM_CACTVS_TPSA>
52.6

>  <PUBCHEM_MONOISOTOPIC_WEIGHT>
290.15180918

>  <PUBCHEM_TOTAL_CHARGE>
0

>  <PUBCHEM_HEAVY_ATOM_COUNT>
21

>  <PUBCHEM_ATOM_DEF_STEREO_COUNT>
3

>  <PUBCHEM_ATOM_UDEF_STEREO_COUNT>
0

>  <PUBCHEM_BOND_DEF_STEREO_COUNT>
2

>  <PUBCHEM_BOND_UDEF_STEREO_COUNT>
0

>  <PUBCHEM_ISOTOPIC_ATOM_COUNT>
0

>  <PUBCHEM_COMPONENT_COUNT>
1

>  <PUBCHEM_CACTVS_TAUTO_COUNT>
-1

>  <PUBCHEM_COORDINATE_TYPE>
1
5
255

>  <PUBCHEM_BONDANNOTATIONS>
7  2  6
5  22  6
6  23  5

$$$$
