5281204
 OpenBabel06082519392D

 55 56  0  0  1  0  0  0  0  0999 V2000
    4.2690   -1.8037    0.0000 O   0  0  0  0  0  0  0  0  0  0  0  0
    6.0010   -1.8037    0.0000 O   0  0  0  0  0  0  0  0  0  0  0  0
   10.5866   -0.1886    0.0000 O   0  0  0  0  0  0  0  0  0  0  0  0
    4.2690   -4.8037    0.0000 O   0  0  0  0  0  0  0  0  0  0  0  0
    2.5369   -3.8037    0.0000 O   0  0  0  0  0  0  0  0  0  0  0  0
    6.0010   -3.8037    0.0000 O   0  0  0  0  0  0  0  0  0  0  0  0
    2.5369   -0.8037    0.0000 O   0  0  0  0  0  0  0  0  0  0  0  0
    8.2913    4.5072    0.0000 O   0  0  0  0  0  0  0  0  0  0  0  0
    9.9855    4.1471    0.0000 O   0  0  0  0  0  0  0  0  0  0  0  0
    9.5697    2.1908    0.0000 C   0  0  2  0  0  0  0  0  0  0  0  0
    9.4651    1.1963    0.0000 C   0  0  2  0  0  0  0  0  0  0  0  0
   10.5478    2.3987    0.0000 C   0  0  0  0  0  0  0  0  0  0  0  0
   11.0478    1.5327    0.0000 C   0  0  0  0  0  0  0  0  0  0  0  0
   10.3787    0.7896    0.0000 C   0  0  0  0  0  0  0  0  0  0  0  0
    8.5991    0.6963    0.0000 C   0  0  0  0  0  0  0  0  0  0  0  0
    8.8265    2.8600    0.0000 C   0  0  0  0  0  0  0  0  0  0  0  0
    4.2690   -3.8037    0.0000 C   0  0  1  0  0  0  0  0  0  0  0  0
    3.4030   -3.3037    0.0000 C   0  0  1  0  0  0  0  0  0  0  0  0
    5.1350   -3.3037    0.0000 C   0  0  2  0  0  0  0  0  0  0  0  0
    3.4030   -2.3037    0.0000 C   0  0  1  0  0  0  0  0  0  0  0  0
    5.1350   -2.3037    0.0000 C   0  0  1  0  0  0  0  0  0  0  0  0
    7.7331    1.1963    0.0000 C   0  0  0  0  0  0  0  0  0  0  0  0
    2.5369   -1.8037    0.0000 C   0  0  0  0  0  0  0  0  0  0  0  0
    9.0344    3.8381    0.0000 C   0  0  0  0  0  0  0  0  0  0  0  0
    6.0010   -0.8037    0.0000 C   0  0  0  0  0  0  0  0  0  0  0  0
    6.8671    0.6963    0.0000 C   0  0  0  0  0  0  0  0  0  0  0  0
    6.8671   -0.3037    0.0000 C   0  0  0  0  0  0  0  0  0  0  0  0
    8.9908    1.9686    0.0000 H   0  0  0  0  0  0  0  0  0  0  0  0
    9.4976    0.5772    0.0000 H   0  0  0  0  0  0  0  0  0  0  0  0
   11.1142    2.6509    0.0000 H   0  0  0  0  0  0  0  0  0  0  0  0
   10.3562    2.9884    0.0000 H   0  0  0  0  0  0  0  0  0  0  0  0
   11.4627    1.0720    0.0000 H   0  0  0  0  0  0  0  0  0  0  0  0
   11.5494    1.8971    0.0000 H   0  0  0  0  0  0  0  0  0  0  0  0
    8.2006    0.2214    0.0000 H   0  0  0  0  0  0  0  0  0  0  0  0
    8.9976    0.2214    0.0000 H   0  0  0  0  0  0  0  0  0  0  0  0
    8.2517    3.0922    0.0000 H   0  0  0  0  0  0  0  0  0  0  0  0
    8.4980    2.3342    0.0000 H   0  0  0  0  0  0  0  0  0  0  0  0
    3.7320   -4.1137    0.0000 H   0  0  0  0  0  0  0  0  0  0  0  0
    3.4030   -3.9237    0.0000 H   0  0  0  0  0  0  0  0  0  0  0  0
    5.1350   -3.9237    0.0000 H   0  0  0  0  0  0  0  0  0  0  0  0
    3.4030   -1.6837    0.0000 H   0  0  0  0  0  0  0  0  0  0  0  0
    5.1350   -1.6837    0.0000 H   0  0  0  0  0  0  0  0  0  0  0  0
    7.7331    1.8163    0.0000 H   0  0  0  0  0  0  0  0  0  0  0  0
    1.9264   -1.6960    0.0000 H   0  0  0  0  0  0  0  0  0  0  0  0
    2.3249   -2.3863    0.0000 H   0  0  0  0  0  0  0  0  0  0  0  0
    5.7890   -0.2211    0.0000 H   0  0  0  0  0  0  0  0  0  0  0  0
    5.3905   -0.9114    0.0000 H   0  0  0  0  0  0  0  0  0  0  0  0
    6.3301    1.0063    0.0000 H   0  0  0  0  0  0  0  0  0  0  0  0
    7.0791   -0.8863    0.0000 H   0  0  0  0  0  0  0  0  0  0  0  0
    7.4776   -0.1960    0.0000 H   0  0  0  0  0  0  0  0  0  0  0  0
    3.7320   -5.1137    0.0000 H   0  0  0  0  0  0  0  0  0  0  0  0
    2.0000   -3.4937    0.0000 H   0  0  0  0  0  0  0  0  0  0  0  0
    6.5380   -3.4937    0.0000 H   0  0  0  0  0  0  0  0  0  0  0  0
    2.0000   -0.4937    0.0000 H   0  0  0  0  0  0  0  0  0  0  0  0
    8.4202    5.1137    0.0000 H   0  0  0  0  0  0  0  0  0  0  0  0
  1 20  1  0  0  0  0
  1 21  1  0  0  0  0
  2 25  1  0  0  0  0
  3 14  2  0  0  0  0
  4 51  1  0  0  0  0
  5 52  1  0  0  0  0
  6 53  1  0  0  0  0
  7 23  1  0  0  0  0
  7 54  1  0  0  0  0
  8 24  1  0  0  0  0
  8 55  1  0  0  0  0
  9 24  2  0  0  0  0
 10 11  1  0  0  0  0
 10 12  1  0  0  0  0
 10 16  1  0  0  0  0
 10 28  1  6  0  0  0
 11 14  1  0  0  0  0
 11 15  1  0  0  0  0
 11 29  1  1  0  0  0
 12 13  1  0  0  0  0
 12 30  1  0  0  0  0
 12 31  1  0  0  0  0
 13 14  1  0  0  0  0
 13 32  1  0  0  0  0
 13 33  1  0  0  0  0
 15 22  1  0  0  0  0
 15 34  1  0  0  0  0
 15 35  1  0  0  0  0
 16 24  1  0  0  0  0
 16 36  1  0  0  0  0
 16 37  1  0  0  0  0
 17  4  1  0  0  0  0
 17 18  1  0  0  0  0
 17 19  1  0  0  0  0
 17 38  1  6  0  0  0
 18  5  1  0  0  0  0
 18 20  1  0  0  0  0
 18 39  1  1  0  0  0
 19  6  1  0  0  0  0
 19 21  1  0  0  0  0
 19 40  1  1  0  0  0
 20 23  1  0  0  0  0
 20 41  1  6  0  0  0
 21  2  1  0  0  0  0
 21 42  1  6  0  0  0
 22 26  2  0  0  0  0
 22 43  1  0  0  0  0
 23 44  1  0  0  0  0
 23 45  1  0  0  0  0
 25 27  1  0  0  0  0
 25 46  1  0  0  0  0
 25 47  1  0  0  0  0
 26 27  1  0  0  0  0
 26 48  1  0  0  0  0
 27 49  1  0  0  0  0
 27 50  1  0  0  0  0
M  END
>  <PUBCHEM_COMPOUND_CID>
5281204

>  <PUBCHEM_COMPOUND_CANONICALIZED>
1

>  <PUBCHEM_CACTVS_COMPLEXITY>
535

>  <PUBCHEM_CACTVS_HBOND_ACCEPTOR>
9

>  <PUBCHEM_CACTVS_HBOND_DONOR>
5

>  <PUBCHEM_CACTVS_ROTATABLE_BOND>
9

>  <PUBCHEM_CACTVS_SUBSKEYS>
AAADceB4PAAAAAAAAAAAAAAAAAAAAYAAAAAkAAAAAAAAAAAAAAAAGgAACAAADRSwgAMACAAABgCIAKDSCAAAAAAgAAAICAEAAAgREBIAAQAiQAAFwAAPAAPI7qyugAAAAAAAAAAAAAAAAAAAAAAACAAAAA==

>  <PUBCHEM_IUPAC_OPENEYE_NAME>
2-[(1R,2R)-3-oxo-2-[(Z)-5-[(2R,3R,4S,5S,6R)-3,4,5-trihydroxy-6-(hydroxymethyl)tetrahydropyran-2-yl]oxypent-2-enyl]cyclopentyl]acetic acid

>  <PUBCHEM_IUPAC_CAS_NAME>
2-[(1R,2R)-3-oxo-2-[(Z)-5-[[(2R,3R,4S,5S,6R)-3,4,5-trihydroxy-6-(hydroxymethyl)-2-oxanyl]oxy]pent-2-enyl]cyclopentyl]acetic acid

>  <PUBCHEM_IUPAC_NAME_MARKUP>
2-[(1<I>R</I>,2<I>R</I>)-3-oxo-2-[(<I>Z</I>)-5-[(2<I>R</I>,3<I>R</I>,4<I>S</I>,5<I>S</I>,6<I>R</I>)-3,4,5-trihydroxy-6-(hydroxymethyl)oxan-2-yl]oxypent-2-enyl]cyclopentyl]acetic acid

>  <PUBCHEM_IUPAC_NAME>
2-[(1R,2R)-3-oxo-2-[(Z)-5-[(2R,3R,4S,5S,6R)-3,4,5-trihydroxy-6-(hydroxymethyl)oxan-2-yl]oxypent-2-enyl]cyclopentyl]acetic acid

>  <PUBCHEM_IUPAC_SYSTEMATIC_NAME>
2-[(1R,2R)-2-[(Z)-5-[(2R,3R,4S,5S,6R)-6-(hydroxymethyl)-3,4,5-tris(oxidanyl)oxan-2-yl]oxypent-2-enyl]-3-oxidanylidene-cyclopentyl]ethanoic acid

>  <PUBCHEM_IUPAC_TRADITIONAL_NAME>
2-[(1R,2R)-3-keto-2-[(Z)-5-[(2R,3R,4S,5S,6R)-3,4,5-trihydroxy-6-methylol-tetrahydropyran-2-yl]oxypent-2-enyl]cyclopentyl]acetic acid

>  <PUBCHEM_IUPAC_INCHI>
InChI=1S/C18H28O9/c19-9-13-15(23)16(24)17(25)18(27-13)26-7-3-1-2-4-11-10(8-14(21)22)5-6-12(11)20/h1-2,10-11,13,15-19,23-25H,3-9H2,(H,21,22)/b2-1-/t10-,11-,13-,15-,16+,17-,18-/m1/s1

>  <PUBCHEM_IUPAC_INCHIKEY>
JFDNMLUPLXZXGV-RKAGECJXSA-N

>  <PUBCHEM_XLOGP3_AA>
-1.2

>  <PUBCHEM_EXACT_MASS>
388.17333247

>  <PUBCHEM_MOLECULAR_FORMULA>
C18H28O9

>  <PUBCHEM_MOLECULAR_WEIGHT>
388.4

>  <PUBCHEM_SMILES>
C1CC(=O)[C@@H]([C@H]1CC(=O)O)C/C=C\CCO[C@H]2[C@@H]([C@H]([C@@H]([C@H](O2)CO)O)O)O

>  <PUBCHEM_OPENEYE_CAN_SMILES>
C1CC(=O)C(C1CC(=O)O)CC=CCCOC2C(C(C(C(O2)CO)O)O)O

>  <PUBCHEM_OPENEYE_ISO_SMILES>
C1CC(=O)[C@@H]([C@H]1CC(=O)O)C/C=C\CCO[C@H]2[C@@H]([C@H]([C@@H]([C@H](O2)CO)O)O)O

>  <PUBCHEM_CACTVS_TPSA>
154

>  <PUBCHEM_MONOISOTOPIC_WEIGHT>
388.17333247

>  <PUBCHEM_TOTAL_CHARGE>
0

>  <PUBCHEM_HEAVY_ATOM_COUNT>
27

>  <PUBCHEM_ATOM_DEF_STEREO_COUNT>
7

>  <PUBCHEM_ATOM_UDEF_STEREO_COUNT>
0

>  <PUBCHEM_BOND_DEF_STEREO_COUNT>
1

>  <PUBCHEM_BOND_UDEF_STEREO_COUNT>
0

>  <PUBCHEM_ISOTOPIC_ATOM_COUNT>
0

>  <PUBCHEM_COMPONENT_COUNT>
1

>  <PUBCHEM_CACTVS_TAUTO_COUNT>
-1

>  <PUBCHEM_COORDINATE_TYPE>
1
5
255

>  <PUBCHEM_BONDANNOTATIONS>
10  16  5
11  15  6
21  2  5
20  23  5
17  4  5
18  5  6
19  6  6

$$$$
