5529
 OpenBabel06082519392D

 46 48  0  0  1  0  0  0  0  0999 V2000
    7.6726    2.7302    0.0000 O   0  0  0  0  0  0  0  0  0  0  0  0
    5.1346    3.2346    0.0000 O   0  0  0  0  0  0  0  0  0  0  0  0
    6.4164    4.9924    0.0000 O   0  0  0  0  0  0  0  0  0  0  0  0
    9.3972    3.9082    0.0000 O   0  0  0  0  0  0  0  0  0  0  0  0
    2.0000   -4.8324    0.0000 O   0  0  0  0  0  0  0  0  0  0  0  0
    6.4103    1.4723    0.0000 N   0  0  0  0  0  0  0  0  0  0  0  0
    6.4103   -0.1372    0.0000 N   0  0  0  0  0  0  0  0  0  0  0  0
    4.5981    1.6676    0.0000 N   0  0  0  0  0  0  0  0  0  0  0  0
    4.5981   -1.3324    0.0000 N   0  0  0  0  0  0  0  0  0  0  0  0
    3.7320    0.1675    0.0000 N   0  0  0  0  0  0  0  0  0  0  0  0
    6.1346    3.2328    0.0000 C   0  0  3  0  0  0  0  0  0  0  0  0
    6.7210    2.4228    0.0000 C   0  0  3  0  0  0  0  0  0  0  0  0
    6.7238    4.0408    0.0000 C   0  0  3  0  0  0  0  0  0  0  0  0
    7.6743    3.7302    0.0000 C   0  0  3  0  0  0  0  0  0  0  0  0
    8.4843    4.3166    0.0000 C   0  0  0  0  0  0  0  0  0  0  0  0
    5.4641    1.1676    0.0000 C   0  0  0  0  0  0  0  0  0  0  0  0
    6.9939    0.6675    0.0000 C   0  0  0  0  0  0  0  0  0  0  0  0
    5.4641    0.1675    0.0000 C   0  0  0  0  0  0  0  0  0  0  0  0
    4.5981   -0.3325    0.0000 C   0  0  0  0  0  0  0  0  0  0  0  0
    3.7320    1.1676    0.0000 C   0  0  0  0  0  0  0  0  0  0  0  0
    3.7320   -1.8324    0.0000 C   0  0  0  0  0  0  0  0  0  0  0  0
    3.7320   -2.8324    0.0000 C   0  0  0  0  0  0  0  0  0  0  0  0
    2.8660   -3.3324    0.0000 C   0  0  0  0  0  0  0  0  0  0  0  0
    2.8660   -4.3324    0.0000 C   0  0  0  0  0  0  0  0  0  0  0  0
    2.0000   -2.8324    0.0000 C   0  0  0  0  0  0  0  0  0  0  0  0
    5.8541    3.7857    0.0000 H   0  0  0  0  0  0  0  0  0  0  0  0
    6.1085    2.3269    0.0000 H   0  0  0  0  0  0  0  0  0  0  0  0
    6.1116    4.1389    0.0000 H   0  0  0  0  0  0  0  0  0  0  0  0
    8.2262    3.4477    0.0000 H   0  0  0  0  0  0  0  0  0  0  0  0
    8.8319    4.8300    0.0000 H   0  0  0  0  0  0  0  0  0  0  0  0
    8.0391    4.7480    0.0000 H   0  0  0  0  0  0  0  0  0  0  0  0
    4.8255    3.7720    0.0000 H   0  0  0  0  0  0  0  0  0  0  0  0
    6.8321    5.4524    0.0000 H   0  0  0  0  0  0  0  0  0  0  0  0
    7.6139    0.6675    0.0000 H   0  0  0  0  0  0  0  0  0  0  0  0
    9.8994    4.2718    0.0000 H   0  0  0  0  0  0  0  0  0  0  0  0
    3.1951    1.4776    0.0000 H   0  0  0  0  0  0  0  0  0  0  0  0
    5.1350   -1.6424    0.0000 H   0  0  0  0  0  0  0  0  0  0  0  0
    3.5200   -1.2498    0.0000 H   0  0  0  0  0  0  0  0  0  0  0  0
    3.1215   -1.9401    0.0000 H   0  0  0  0  0  0  0  0  0  0  0  0
    4.2690   -3.1425    0.0000 H   0  0  0  0  0  0  0  0  0  0  0  0
    3.0781   -4.9151    0.0000 H   0  0  0  0  0  0  0  0  0  0  0  0
    3.4766   -4.2248    0.0000 H   0  0  0  0  0  0  0  0  0  0  0  0
    2.3100   -2.2955    0.0000 H   0  0  0  0  0  0  0  0  0  0  0  0
    1.4631   -2.5224    0.0000 H   0  0  0  0  0  0  0  0  0  0  0  0
    1.6900   -3.3694    0.0000 H   0  0  0  0  0  0  0  0  0  0  0  0
    2.0000   -5.4524    0.0000 H   0  0  0  0  0  0  0  0  0  0  0  0
  1 12  1  0  0  0  0
  1 14  1  0  0  0  0
  2 11  1  0  0  0  0
  2 32  1  0  0  0  0
  3 13  1  0  0  0  0
  3 33  1  0  0  0  0
  4 15  1  0  0  0  0
  4 35  1  0  0  0  0
  5 24  1  0  0  0  0
  5 46  1  0  0  0  0
  6 12  1  0  0  0  0
  6 16  1  0  0  0  0
  6 17  1  0  0  0  0
  7 17  2  0  0  0  0
  7 18  1  0  0  0  0
  8 16  2  0  0  0  0
  8 20  1  0  0  0  0
  9 19  1  0  0  0  0
  9 21  1  0  0  0  0
  9 37  1  0  0  0  0
 10 19  1  0  0  0  0
 10 20  2  0  0  0  0
 11 12  1  0  0  0  0
 11 13  1  0  0  0  0
 11 26  1  0  0  0  0
 12 27  1  0  0  0  0
 13 14  1  0  0  0  0
 13 28  1  0  0  0  0
 14 15  1  0  0  0  0
 14 29  1  0  0  0  0
 15 30  1  0  0  0  0
 15 31  1  0  0  0  0
 16 18  1  0  0  0  0
 17 34  1  0  0  0  0
 18 19  2  0  0  0  0
 20 36  1  0  0  0  0
 21 22  1  0  0  0  0
 21 38  1  0  0  0  0
 21 39  1  0  0  0  0
 22 23  2  3  0  0  0
 22 40  1  0  0  0  0
 23 24  1  0  0  0  0
 23 25  1  0  0  0  0
 24 41  1  0  0  0  0
 24 42  1  0  0  0  0
 25 43  1  0  0  0  0
 25 44  1  0  0  0  0
 25 45  1  0  0  0  0
M  END
>  <PUBCHEM_COMPOUND_CID>
5529

>  <PUBCHEM_COMPOUND_CANONICALIZED>
1

>  <PUBCHEM_CACTVS_COMPLEXITY>
481

>  <PUBCHEM_CACTVS_HBOND_ACCEPTOR>
9

>  <PUBCHEM_CACTVS_HBOND_DONOR>
5

>  <PUBCHEM_CACTVS_ROTATABLE_BOND>
6

>  <PUBCHEM_CACTVS_SUBSKEYS>
AAADceBzuAAAAAAAAAAAAAAAAAAAAWJAAAAsAAAAAAAAAFgB+AAAHgAQCAAADBzhlwYH8L/MFgCgAyZjZACAgC0REKABWKAoVBCDXAJAyUAeVAgPEALTECDwMAIAAAAAAAAAAAAAAAAAAAAAAAAAAAAAAA==

>  <PUBCHEM_IUPAC_OPENEYE_NAME>
2-(hydroxymethyl)-5-[6-[(4-hydroxy-3-methyl-but-2-enyl)amino]purin-9-yl]tetrahydrofuran-3,4-diol

>  <PUBCHEM_IUPAC_CAS_NAME>
2-(hydroxymethyl)-5-[6-[(4-hydroxy-3-methylbut-2-enyl)amino]-9-purinyl]oxolane-3,4-diol

>  <PUBCHEM_IUPAC_NAME_MARKUP>
2-(hydroxymethyl)-5-[6-[(4-hydroxy-3-methylbut-2-enyl)amino]purin-9-yl]oxolane-3,4-diol

>  <PUBCHEM_IUPAC_NAME>
2-(hydroxymethyl)-5-[6-[(4-hydroxy-3-methylbut-2-enyl)amino]purin-9-yl]oxolane-3,4-diol

>  <PUBCHEM_IUPAC_SYSTEMATIC_NAME>
2-(hydroxymethyl)-5-[6-[(3-methyl-4-oxidanyl-but-2-enyl)amino]purin-9-yl]oxolane-3,4-diol

>  <PUBCHEM_IUPAC_TRADITIONAL_NAME>
2-[6-[(4-hydroxy-3-methyl-but-2-enyl)amino]purin-9-yl]-5-methylol-tetrahydrofuran-3,4-diol

>  <PUBCHEM_IUPAC_INCHI>
InChI=1S/C15H21N5O5/c1-8(4-21)2-3-16-13-10-14(18-6-17-13)20(7-19-10)15-12(24)11(23)9(5-22)25-15/h2,6-7,9,11-12,15,21-24H,3-5H2,1H3,(H,16,17,18)

>  <PUBCHEM_IUPAC_INCHIKEY>
GOSWTRUMMSCNCW-UHFFFAOYSA-N

>  <PUBCHEM_XLOGP3>
-0.1

>  <PUBCHEM_EXACT_MASS>
351.15426879

>  <PUBCHEM_MOLECULAR_FORMULA>
C15H21N5O5

>  <PUBCHEM_MOLECULAR_WEIGHT>
351.36

>  <PUBCHEM_SMILES>
CC(=CCNC1=C2C(=NC=N1)N(C=N2)C3C(C(C(O3)CO)O)O)CO

>  <PUBCHEM_OPENEYE_CAN_SMILES>
CC(=CCNC1=C2C(=NC=N1)N(C=N2)C3C(C(C(O3)CO)O)O)CO

>  <PUBCHEM_OPENEYE_ISO_SMILES>
CC(=CCNC1=C2C(=NC=N1)N(C=N2)C3C(C(C(O3)CO)O)O)CO

>  <PUBCHEM_CACTVS_TPSA>
146

>  <PUBCHEM_MONOISOTOPIC_WEIGHT>
351.15426879

>  <PUBCHEM_TOTAL_CHARGE>
0

>  <PUBCHEM_HEAVY_ATOM_COUNT>
25

>  <PUBCHEM_ATOM_DEF_STEREO_COUNT>
0

>  <PUBCHEM_ATOM_UDEF_STEREO_COUNT>
4

>  <PUBCHEM_BOND_DEF_STEREO_COUNT>
0

>  <PUBCHEM_BOND_UDEF_STEREO_COUNT>
1

>  <PUBCHEM_ISOTOPIC_ATOM_COUNT>
0

>  <PUBCHEM_COMPONENT_COUNT>
1

>  <PUBCHEM_CACTVS_TAUTO_COUNT>
-1

>  <PUBCHEM_COORDINATE_TYPE>
1
5
255

>  <PUBCHEM_BONDANNOTATIONS>
10  19  8
10  20  8
14  15  3
16  18  8
18  19  8
11  2  3
22  23  1
13  3  3
12  6  3
6  16  8
6  17  8
7  17  8
7  18  8
8  16  8
8  20  8

$$$$
