5838160
 OpenBabel06082519392D

 52 54  0  0  1  0  0  0  0  0999 V2000
    4.6640   -2.3102    0.0000 O   0  0  0  0  0  0  0  0  0  0  0  0
    5.4115   -0.4834    0.0000 O   0  0  0  0  0  0  0  0  0  0  0  0
    8.2085    1.4950    0.0000 O   0  0  0  0  0  0  0  0  0  0  0  0
    6.5151    0.3639    0.0000 O   0  0  0  0  0  0  0  0  0  0  0  0
    9.7921    0.6902    0.0000 O   0  0  0  0  0  0  0  0  0  0  0  0
    4.3034    1.0990    0.0000 O   0  0  0  0  0  0  0  0  0  0  0  0
    5.5303   -1.8098    0.0000 C   0  0  3  0  0  0  0  0  0  0  0  0
    4.6642   -1.3098    0.0000 C   0  0  3  0  0  0  0  0  0  0  0  0
    6.3963   -1.3098    0.0000 C   0  0  0  0  0  0  0  0  0  0  0  0
    4.6642   -0.3098    0.0000 C   0  0  0  0  0  0  0  0  0  0  0  0
    6.3963   -0.3098    0.0000 C   0  0  3  0  0  0  0  0  0  0  0  0
    6.3963   -2.3098    0.0000 C   0  0  0  0  0  0  0  0  0  0  0  0
    7.2623    0.1902    0.0000 C   0  0  3  0  0  0  0  0  0  0  0  0
    5.5303    0.1902    0.0000 C   0  0  3  0  0  0  0  0  0  0  0  0
    7.2623    1.1902    0.0000 C   0  0  3  0  0  0  0  0  0  0  0  0
    5.5303    1.1902    0.0000 C   0  0  0  0  0  0  0  0  0  0  0  0
    8.2085   -0.1145    0.0000 C   0  0  0  0  0  0  0  0  0  0  0  0
    6.3963    1.6902    0.0000 C   0  0  0  0  0  0  0  0  0  0  0  0
    8.7921    0.6902    0.0000 C   0  0  0  0  0  0  0  0  0  0  0  0
    5.0303    2.0563    0.0000 C   0  0  0  0  0  0  0  0  0  0  0  0
    8.5192   -1.0650    0.0000 C   0  0  0  0  0  0  0  0  0  0  0  0
    4.6454    0.1593    0.0000 C   0  0  0  0  0  0  0  0  0  0  0  0
    3.7057   -0.1827    0.0000 C   0  0  0  0  0  0  0  0  0  0  0  0
    3.5321   -1.1674    0.0000 C   0  0  0  0  0  0  0  0  0  0  0  0
    2.9397    0.4600    0.0000 C   0  0  0  0  0  0  0  0  0  0  0  0
    2.0000    0.1181    0.0000 C   0  0  0  0  0  0  0  0  0  0  0  0
    4.0442   -1.3097    0.0000 H   0  0  0  0  0  0  0  0  0  0  0  0
    6.6083   -1.8924    0.0000 H   0  0  0  0  0  0  0  0  0  0  0  0
    7.0069   -1.2021    0.0000 H   0  0  0  0  0  0  0  0  0  0  0  0
    4.4522    0.2728    0.0000 H   0  0  0  0  0  0  0  0  0  0  0  0
    4.0537   -0.4174    0.0000 H   0  0  0  0  0  0  0  0  0  0  0  0
    6.1842    0.2728    0.0000 H   0  0  0  0  0  0  0  0  0  0  0  0
    6.0863   -2.8467    0.0000 H   0  0  0  0  0  0  0  0  0  0  0  0
    6.9332   -2.6198    0.0000 H   0  0  0  0  0  0  0  0  0  0  0  0
    6.7063   -1.7728    0.0000 H   0  0  0  0  0  0  0  0  0  0  0  0
    7.3279   -0.4263    0.0000 H   0  0  0  0  0  0  0  0  0  0  0  0
    5.7423   -0.3924    0.0000 H   0  0  0  0  0  0  0  0  0  0  0  0
    7.3279    1.8067    0.0000 H   0  0  0  0  0  0  0  0  0  0  0  0
    6.3963    2.3102    0.0000 H   0  0  0  0  0  0  0  0  0  0  0  0
    6.4074    0.9745    0.0000 H   0  0  0  0  0  0  0  0  0  0  0  0
    5.5672    2.3663    0.0000 H   0  0  0  0  0  0  0  0  0  0  0  0
    4.7203    2.5932    0.0000 H   0  0  0  0  0  0  0  0  0  0  0  0
    4.4933    1.7463    0.0000 H   0  0  0  0  0  0  0  0  0  0  0  0
    8.1051   -1.5265    0.0000 H   0  0  0  0  0  0  0  0  0  0  0  0
    9.1259   -1.1929    0.0000 H   0  0  0  0  0  0  0  0  0  0  0  0
    2.9215   -1.0597    0.0000 H   0  0  0  0  0  0  0  0  0  0  0  0
    3.4244   -1.7780    0.0000 H   0  0  0  0  0  0  0  0  0  0  0  0
    4.1426   -1.2751    0.0000 H   0  0  0  0  0  0  0  0  0  0  0  0
    3.0473    1.0706    0.0000 H   0  0  0  0  0  0  0  0  0  0  0  0
    1.7880    0.7007    0.0000 H   0  0  0  0  0  0  0  0  0  0  0  0
    1.4174   -0.0939    0.0000 H   0  0  0  0  0  0  0  0  0  0  0  0
    2.2120   -0.4645    0.0000 H   0  0  0  0  0  0  0  0  0  0  0  0
  1  7  1  0  0  0  0
  1  8  1  0  0  0  0
  2 11  1  0  0  0  0
  2 22  1  0  0  0  0
  3 15  1  0  0  0  0
  3 19  1  0  0  0  0
  4 14  1  0  0  0  0
  4 40  1  0  0  0  0
  5 19  2  0  0  0  0
  6 22  2  0  0  0  0
  7  8  1  0  0  0  0
  7  9  1  0  0  0  0
  7 12  1  0  0  0  0
  8 10  1  0  0  0  0
  8 27  1  0  0  0  0
  9 11  1  0  0  0  0
  9 28  1  0  0  0  0
  9 29  1  0  0  0  0
 10 14  1  0  0  0  0
 10 30  1  0  0  0  0
 10 31  1  0  0  0  0
 11 13  1  0  0  0  0
 11 32  1  0  0  0  0
 12 33  1  0  0  0  0
 12 34  1  0  0  0  0
 12 35  1  0  0  0  0
 13 15  1  0  0  0  0
 13 17  1  0  0  0  0
 13 36  1  0  0  0  0
 14 16  1  0  0  0  0
 14 37  1  0  0  0  0
 15 18  1  0  0  0  0
 15 38  1  0  0  0  0
 16 18  2  0  0  0  0
 16 20  1  0  0  0  0
 17 19  1  0  0  0  0
 17 21  2  0  0  0  0
 18 39  1  0  0  0  0
 20 41  1  0  0  0  0
 20 42  1  0  0  0  0
 20 43  1  0  0  0  0
 21 44  1  0  0  0  0
 21 45  1  0  0  0  0
 22 23  1  0  0  0  0
 23 24  1  0  0  0  0
 23 25  2  0  0  0  0
 24 46  1  0  0  0  0
 24 47  1  0  0  0  0
 24 48  1  0  0  0  0
 25 26  1  0  0  0  0
 25 49  1  0  0  0  0
 26 50  1  0  0  0  0
 26 51  1  0  0  0  0
 26 52  1  0  0  0  0
M  END
>  <PUBCHEM_COMPOUND_CID>
5838160

>  <PUBCHEM_COMPOUND_CANONICALIZED>
1

>  <PUBCHEM_CACTVS_COMPLEXITY>
705

>  <PUBCHEM_CACTVS_HBOND_ACCEPTOR>
6

>  <PUBCHEM_CACTVS_HBOND_DONOR>
1

>  <PUBCHEM_CACTVS_ROTATABLE_BOND>
3

>  <PUBCHEM_CACTVS_SUBSKEYS>
AAADceB4OAAAAAAAAAAAAAAAEgAAASAAAAAAAAAAAAAAAACAAAAAGgAACAAADVSggAICCAAABgCIAiDSCAAAAAAgAAAACAEAAEgAFBIAIQACUAAFwAAIMYPK6PyOAAAAAAAAAAAAAAAAAAAAAAAAAAAAAA==

>  <PUBCHEM_IUPAC_OPENEYE_NAME>
[(9Z)-8-hydroxy-4,9-dimethyl-14-methylene-13-oxo-5,12-dioxatricyclo[9.3.0.04,6]tetradec-9-en-2-yl] (E)-2-methylbut-2-enoate

>  <PUBCHEM_IUPAC_CAS_NAME>
(E)-2-methyl-2-butenoic acid [(9Z)-8-hydroxy-4,9-dimethyl-14-methylene-13-oxo-5,12-dioxatricyclo[9.3.0.04,6]tetradec-9-en-2-yl] ester

>  <PUBCHEM_IUPAC_NAME_MARKUP>
[(9<I>Z</I>)-8-hydroxy-4,9-dimethyl-14-methylidene-13-oxo-5,12-dioxatricyclo[9.3.0.0<SUP>4,6</SUP>]tetradec-9-en-2-yl] (<I>E</I>)-2-methylbut-2-enoate

>  <PUBCHEM_IUPAC_NAME>
[(9Z)-8-hydroxy-4,9-dimethyl-14-methylidene-13-oxo-5,12-dioxatricyclo[9.3.0.04,6]tetradec-9-en-2-yl] (E)-2-methylbut-2-enoate

>  <PUBCHEM_IUPAC_SYSTEMATIC_NAME>
[(9Z)-4,9-dimethyl-14-methylidene-8-oxidanyl-13-oxidanylidene-5,12-dioxatricyclo[9.3.0.04,6]tetradec-9-en-2-yl] (E)-2-methylbut-2-enoate

>  <PUBCHEM_IUPAC_TRADITIONAL_NAME>
(E)-2-methylbut-2-enoic acid [(9Z)-8-hydroxy-13-keto-4,9-dimethyl-14-methylene-5,12-dioxatricyclo[9.3.0.04,6]tetradec-9-en-2-yl] ester

>  <PUBCHEM_IUPAC_INCHI>
InChI=1S/C20H26O6/c1-6-10(2)18(22)25-15-9-20(5)16(26-20)8-13(21)11(3)7-14-17(15)12(4)19(23)24-14/h6-7,13-17,21H,4,8-9H2,1-3,5H3/b10-6+,11-7-

>  <PUBCHEM_IUPAC_INCHIKEY>
DZTWAOVNNLDWNH-QZTBCQRESA-N

>  <PUBCHEM_XLOGP3_AA>
1.9

>  <PUBCHEM_EXACT_MASS>
362.17293854

>  <PUBCHEM_MOLECULAR_FORMULA>
C20H26O6

>  <PUBCHEM_MOLECULAR_WEIGHT>
362.4

>  <PUBCHEM_SMILES>
C/C=C(\C)/C(=O)OC1CC2(C(O2)CC(/C(=C\C3C1C(=C)C(=O)O3)/C)O)C

>  <PUBCHEM_OPENEYE_CAN_SMILES>
CC=C(C)C(=O)OC1CC2(C(O2)CC(C(=CC3C1C(=C)C(=O)O3)C)O)C

>  <PUBCHEM_OPENEYE_ISO_SMILES>
C/C=C(\C)/C(=O)OC1CC2(C(O2)CC(/C(=C\C3C1C(=C)C(=O)O3)/C)O)C

>  <PUBCHEM_CACTVS_TPSA>
85.4

>  <PUBCHEM_MONOISOTOPIC_WEIGHT>
362.17293854

>  <PUBCHEM_TOTAL_CHARGE>
0

>  <PUBCHEM_HEAVY_ATOM_COUNT>
26

>  <PUBCHEM_ATOM_DEF_STEREO_COUNT>
0

>  <PUBCHEM_ATOM_UDEF_STEREO_COUNT>
6

>  <PUBCHEM_BOND_DEF_STEREO_COUNT>
2

>  <PUBCHEM_BOND_UDEF_STEREO_COUNT>
0

>  <PUBCHEM_ISOTOPIC_ATOM_COUNT>
0

>  <PUBCHEM_COMPONENT_COUNT>
1

>  <PUBCHEM_CACTVS_TAUTO_COUNT>
-1

>  <PUBCHEM_COORDINATE_TYPE>
1
5
255

>  <PUBCHEM_BONDANNOTATIONS>
13  17  3
15  18  3
11  2  3
14  4  3
7  12  3
8  10  3

$$$$
