6850749
 OpenBabel06082519392D

 91 92  0  0  1  0  0  0  0  0999 V2000
    9.6032    8.0239    0.0000 O   0  0  0  0  0  0  0  0  0  0  0  0
    5.1578   10.1822    0.0000 O   0  0  0  0  0  0  0  0  0  0  0  0
    8.2673    5.5654    0.0000 O   0  0  0  0  0  0  0  0  0  0  0  0
    9.4664    6.8152    0.0000 O   0  0  0  0  0  0  0  0  0  0  0  0
    9.8515   11.3799    0.0000 O   0  0  0  0  0  0  0  0  0  0  0  0
    8.2910   12.1314    0.0000 O   0  0  0  0  0  0  0  0  0  0  0  0
    8.3312    0.3100    0.0000 O   0  0  0  0  0  0  0  0  0  0  0  0
    9.1972    2.8100    0.0000 O   0  0  0  0  0  0  0  0  0  0  0  0
   14.3933    1.8100    0.0000 O   0  0  0  0  0  0  0  0  0  0  0  0
    0.5369    1.8100    0.0000 O   0  0  0  0  0  0  0  0  0  0  0  0
    1.4030    0.3100    0.0000 O   0  0  0  0  0  0  0  0  0  0  0  0
    7.9204    8.2135    0.0000 C   0  0  3  0  0  0  0  0  0  0  0  0
    7.0194    8.6474    0.0000 C   0  0  3  0  0  0  0  0  0  0  0  0
    6.7969    9.6223    0.0000 C   0  0  1  0  0  0  0  0  0  0  0  0
    7.4204   10.4042    0.0000 C   0  0  1  0  0  0  0  0  0  0  0  0
    8.0273    9.3903    0.0000 C   0  0  0  0  0  0  0  0  0  0  0  0
    7.7844    7.2288    0.0000 C   0  0  1  0  0  0  0  0  0  0  0  0
    6.3343    7.9271    0.0000 C   0  0  0  0  0  0  0  0  0  0  0  0
    8.8214    8.6474    0.0000 C   0  0  2  0  0  0  0  0  0  0  0  0
    6.8062    7.0521    0.0000 C   0  0  0  0  0  0  0  0  0  0  0  0
    8.4204   10.4042    0.0000 C   0  0  0  0  0  0  0  0  0  0  0  0
    6.1390   10.3754    0.0000 C   0  0  0  0  0  0  0  0  0  0  0  0
    5.8774    9.2293    0.0000 C   0  0  0  0  0  0  0  0  0  0  0  0
    9.0439    9.6223    0.0000 C   0  0  0  0  0  0  0  0  0  0  0  0
    8.5060    6.5365    0.0000 C   0  0  0  0  0  0  0  0  0  0  0  0
    8.8543   11.3051    0.0000 C   0  0  0  0  0  0  0  0  0  0  0  0
    8.3312    1.3100    0.0000 C   0  0  3  0  0  0  0  0  0  0  0  0
    9.1972    1.8100    0.0000 C   0  0  3  0  0  0  0  0  0  0  0  0
    7.4651    1.8100    0.0000 C   0  0  0  0  0  0  0  0  0  0  0  0
    6.5991    1.3100    0.0000 C   0  0  0  0  0  0  0  0  0  0  0  0
   10.0632    1.3100    0.0000 C   0  0  0  0  0  0  0  0  0  0  0  0
    5.7331    1.8100    0.0000 C   0  0  0  0  0  0  0  0  0  0  0  0
   10.9292    1.8100    0.0000 C   0  0  0  0  0  0  0  0  0  0  0  0
    4.8671    1.3100    0.0000 C   0  0  0  0  0  0  0  0  0  0  0  0
   11.7953    1.3100    0.0000 C   0  0  0  0  0  0  0  0  0  0  0  0
    4.0010    1.8100    0.0000 C   0  0  0  0  0  0  0  0  0  0  0  0
   12.6613    1.8100    0.0000 C   0  0  0  0  0  0  0  0  0  0  0  0
    3.1350    1.3100    0.0000 C   0  0  0  0  0  0  0  0  0  0  0  0
    2.2690    1.8100    0.0000 C   0  0  0  0  0  0  0  0  0  0  0  0
   13.5273    1.3100    0.0000 C   0  0  0  0  0  0  0  0  0  0  0  0
    1.4030    1.3100    0.0000 C   0  0  0  0  0  0  0  0  0  0  0  0
    6.4216    8.8116    0.0000 H   0  0  0  0  0  0  0  0  0  0  0  0
    7.2313   11.2329    0.0000 H   0  0  0  0  0  0  0  0  0  0  0  0
    8.5973    9.1465    0.0000 H   0  0  0  0  0  0  0  0  0  0  0  0
    8.4351    9.8573    0.0000 H   0  0  0  0  0  0  0  0  0  0  0  0
    8.3701    7.4323    0.0000 H   0  0  0  0  0  0  0  0  0  0  0  0
    5.9325    8.3993    0.0000 H   0  0  0  0  0  0  0  0  0  0  0  0
    5.8226    7.5771    0.0000 H   0  0  0  0  0  0  0  0  0  0  0  0
    8.7520    8.0313    0.0000 H   0  0  0  0  0  0  0  0  0  0  0  0
    6.2325    6.8168    0.0000 H   0  0  0  0  0  0  0  0  0  0  0  0
    6.9799    6.4570    0.0000 H   0  0  0  0  0  0  0  0  0  0  0  0
    6.6696   10.6961    0.0000 H   0  0  0  0  0  0  0  0  0  0  0  0
    5.9154   10.9537    0.0000 H   0  0  0  0  0  0  0  0  0  0  0  0
    5.6337    9.7994    0.0000 H   0  0  0  0  0  0  0  0  0  0  0  0
    5.3073    8.9856    0.0000 H   0  0  0  0  0  0  0  0  0  0  0  0
    6.1211    8.6592    0.0000 H   0  0  0  0  0  0  0  0  0  0  0  0
    9.6484    9.7603    0.0000 H   0  0  0  0  0  0  0  0  0  0  0  0
   10.1804    8.2504    0.0000 H   0  0  0  0  0  0  0  0  0  0  0  0
    4.7499   10.6491    0.0000 H   0  0  0  0  0  0  0  0  0  0  0  0
    8.7146    5.1362    0.0000 H   0  0  0  0  0  0  0  0  0  0  0  0
   10.1205   11.9385    0.0000 H   0  0  0  0  0  0  0  0  0  0  0  0
    8.8681    1.0000    0.0000 H   0  0  0  0  0  0  0  0  0  0  0  0
    8.6602    2.1200    0.0000 H   0  0  0  0  0  0  0  0  0  0  0  0
    7.8637    2.2849    0.0000 H   0  0  0  0  0  0  0  0  0  0  0  0
    7.0666    2.2849    0.0000 H   0  0  0  0  0  0  0  0  0  0  0  0
    6.2006    0.8351    0.0000 H   0  0  0  0  0  0  0  0  0  0  0  0
    6.9976    0.8351    0.0000 H   0  0  0  0  0  0  0  0  0  0  0  0
    9.6647    0.8351    0.0000 H   0  0  0  0  0  0  0  0  0  0  0  0
   10.4617    0.8351    0.0000 H   0  0  0  0  0  0  0  0  0  0  0  0
    6.1316    2.2849    0.0000 H   0  0  0  0  0  0  0  0  0  0  0  0
    5.3346    2.2849    0.0000 H   0  0  0  0  0  0  0  0  0  0  0  0
   11.3278    2.2849    0.0000 H   0  0  0  0  0  0  0  0  0  0  0  0
   10.5307    2.2849    0.0000 H   0  0  0  0  0  0  0  0  0  0  0  0
    4.4685    0.8351    0.0000 H   0  0  0  0  0  0  0  0  0  0  0  0
    5.2656    0.8351    0.0000 H   0  0  0  0  0  0  0  0  0  0  0  0
   11.3967    0.8351    0.0000 H   0  0  0  0  0  0  0  0  0  0  0  0
   12.1938    0.8351    0.0000 H   0  0  0  0  0  0  0  0  0  0  0  0
    4.3996    2.2849    0.0000 H   0  0  0  0  0  0  0  0  0  0  0  0
    3.6025    2.2849    0.0000 H   0  0  0  0  0  0  0  0  0  0  0  0
   13.0598    2.2849    0.0000 H   0  0  0  0  0  0  0  0  0  0  0  0
   12.2628    2.2849    0.0000 H   0  0  0  0  0  0  0  0  0  0  0  0
    2.7365    0.8351    0.0000 H   0  0  0  0  0  0  0  0  0  0  0  0
    3.5335    0.8351    0.0000 H   0  0  0  0  0  0  0  0  0  0  0  0
    7.7942    0.0000    0.0000 H   0  0  0  0  0  0  0  0  0  0  0  0
    9.7341    3.1200    0.0000 H   0  0  0  0  0  0  0  0  0  0  0  0
    2.6675    2.2849    0.0000 H   0  0  0  0  0  0  0  0  0  0  0  0
    1.8705    2.2849    0.0000 H   0  0  0  0  0  0  0  0  0  0  0  0
   13.1288    0.8351    0.0000 H   0  0  0  0  0  0  0  0  0  0  0  0
   13.9258    0.8351    0.0000 H   0  0  0  0  0  0  0  0  0  0  0  0
   14.9303    1.5000    0.0000 H   0  0  0  0  0  0  0  0  0  0  0  0
    0.0000    1.5000    0.0000 H   0  0  0  0  0  0  0  0  0  0  0  0
  1 58  1  0  0  0  0
  2 22  1  0  0  0  0
  2 59  1  0  0  0  0
  3 25  1  0  0  0  0
  3 60  1  0  0  0  0
  4 25  2  0  0  0  0
  5 26  1  0  0  0  0
  5 61  1  0  0  0  0
  6 26  2  0  0  0  0
  7 27  1  0  0  0  0
  7 84  1  0  0  0  0
  8 28  1  0  0  0  0
  8 85  1  0  0  0  0
  9 40  1  0  0  0  0
  9 90  1  0  0  0  0
 10 41  1  0  0  0  0
 10 91  1  0  0  0  0
 11 41  2  0  0  0  0
 12 13  1  0  0  0  0
 12 16  1  0  0  0  0
 12 17  1  0  0  0  0
 12 19  1  0  0  0  0
 13 14  1  0  0  0  0
 13 18  1  0  0  0  0
 13 42  1  0  0  0  0
 14 15  1  0  0  0  0
 14 22  1  6  0  0  0
 14 23  1  0  0  0  0
 15 16  1  0  0  0  0
 15 21  1  0  0  0  0
 15 43  1  1  0  0  0
 16 44  1  0  0  0  0
 16 45  1  0  0  0  0
 17 20  1  0  0  0  0
 17 25  1  0  0  0  0
 17 46  1  1  0  0  0
 18 20  1  0  0  0  0
 18 47  1  0  0  0  0
 18 48  1  0  0  0  0
 19  1  1  0  0  0  0
 19 24  1  0  0  0  0
 19 49  1  1  0  0  0
 20 50  1  0  0  0  0
 20 51  1  0  0  0  0
 21 24  2  0  0  0  0
 21 26  1  0  0  0  0
 22 52  1  0  0  0  0
 22 53  1  0  0  0  0
 23 54  1  0  0  0  0
 23 55  1  0  0  0  0
 23 56  1  0  0  0  0
 24 57  1  0  0  0  0
 27 28  1  0  0  0  0
 27 29  1  0  0  0  0
 27 62  1  0  0  0  0
 28 31  1  0  0  0  0
 28 63  1  0  0  0  0
 29 30  1  0  0  0  0
 29 64  1  0  0  0  0
 29 65  1  0  0  0  0
 30 32  1  0  0  0  0
 30 66  1  0  0  0  0
 30 67  1  0  0  0  0
 31 33  1  0  0  0  0
 31 68  1  0  0  0  0
 31 69  1  0  0  0  0
 32 34  1  0  0  0  0
 32 70  1  0  0  0  0
 32 71  1  0  0  0  0
 33 35  1  0  0  0  0
 33 72  1  0  0  0  0
 33 73  1  0  0  0  0
 34 36  1  0  0  0  0
 34 74  1  0  0  0  0
 34 75  1  0  0  0  0
 35 37  1  0  0  0  0
 35 76  1  0  0  0  0
 35 77  1  0  0  0  0
 36 38  1  0  0  0  0
 36 78  1  0  0  0  0
 36 79  1  0  0  0  0
 37 40  1  0  0  0  0
 37 80  1  0  0  0  0
 37 81  1  0  0  0  0
 38 39  1  0  0  0  0
 38 82  1  0  0  0  0
 38 83  1  0  0  0  0
 39 41  1  0  0  0  0
 39 86  1  0  0  0  0
 39 87  1  0  0  0  0
 40 88  1  0  0  0  0
 40 89  1  0  0  0  0
M  END
>  <PUBCHEM_COMPOUND_CID>
6850749

>  <PUBCHEM_COMPOUND_CANONICALIZED>
1

>  <PUBCHEM_CACTVS_COMPLEXITY>
773

>  <PUBCHEM_CACTVS_HBOND_ACCEPTOR>
11

>  <PUBCHEM_CACTVS_HBOND_DONOR>
8

>  <PUBCHEM_CACTVS_ROTATABLE_BOND>
17

>  <PUBCHEM_CACTVS_SUBSKEYS>
AAADcfB4PAAAAAAAAAAAAAAAAAAAAYMAAAAgAAAABAAYAACAAAAAGgAACAAADxSggAICCAAAAgCIAiDSCAAAAAAgAAAACAEAAEgBFBIAAQAAUAAEgAAJEYPK7PSPgAAAAAAAAAAAAAAAAAAAAQAACAAAAA==

>  <PUBCHEM_IUPAC_OPENEYE_NAME>
(2R,6S,7R,10S)-10-hydroxy-6-(hydroxymethyl)-6-methyl-tricyclo[5.3.1.01,5]undec-8-ene-2,8-dicarboxylic acid;9,10,15-trihydroxypentadecanoic acid

>  <PUBCHEM_IUPAC_CAS_NAME>
(2R,6S,7R,10S)-10-hydroxy-6-(hydroxymethyl)-6-methyltricyclo[5.3.1.01,5]undec-8-ene-2,8-dicarboxylic acid;9,10,15-trihydroxypentadecanoic acid

>  <PUBCHEM_IUPAC_NAME_MARKUP>
(2<I>R</I>,6<I>S</I>,7<I>R</I>,10<I>S</I>)-10-hydroxy-6-(hydroxymethyl)-6-methyltricyclo[5.3.1.0<SUP>1,5</SUP>]undec-8-ene-2,8-dicarboxylic acid;9,10,15-trihydroxypentadecanoic acid

>  <PUBCHEM_IUPAC_NAME>
(2R,6S,7R,10S)-10-hydroxy-6-(hydroxymethyl)-6-methyltricyclo[5.3.1.01,5]undec-8-ene-2,8-dicarboxylic acid;9,10,15-trihydroxypentadecanoic acid

>  <PUBCHEM_IUPAC_SYSTEMATIC_NAME>
(2R,6S,7R,10S)-6-(hydroxymethyl)-6-methyl-10-oxidanyl-tricyclo[5.3.1.01,5]undec-8-ene-2,8-dicarboxylic acid;9,10,15-tris(oxidanyl)pentadecanoic acid

>  <PUBCHEM_IUPAC_TRADITIONAL_NAME>
(2R,6S,7R,10S)-10-hydroxy-6-methyl-6-methylol-tricyclo[5.3.1.01,5]undec-8-ene-2,8-dicarboxylic acid;9,10,15-trihydroxypentadecanoic acid

>  <PUBCHEM_IUPAC_INCHI>
InChI=1S/C15H20O6.C15H30O5/c1-14(6-16)9-5-15(11(17)4-7(9)12(18)19)8(13(20)21)2-3-10(14)15;16-12-8-4-6-10-14(18)13(17)9-5-2-1-3-7-11-15(19)20/h4,8-11,16-17H,2-3,5-6H2,1H3,(H,18,19)(H,20,21);13-14,16-18H,1-12H2,(H,19,20)/t8-,9-,10?,11-,14+,15?;/m0./s1

>  <PUBCHEM_IUPAC_INCHIKEY>
ZLGIYFNHBLSMPS-ATJNOEHPSA-N

>  <PUBCHEM_EXACT_MASS>
586.33531241

>  <PUBCHEM_MOLECULAR_FORMULA>
C30H50O11

>  <PUBCHEM_MOLECULAR_WEIGHT>
586.7

>  <PUBCHEM_SMILES>
C[C@]1([C@H]2CC3(C1CC[C@H]3C(=O)O)[C@H](C=C2C(=O)O)O)CO.C(CCCC(C(CCCCCO)O)O)CCCC(=O)O

>  <PUBCHEM_OPENEYE_CAN_SMILES>
CC1(C2CCC(C23CC1C(=CC3O)C(=O)O)C(=O)O)CO.C(CCCC(C(CCCCCO)O)O)CCCC(=O)O

>  <PUBCHEM_OPENEYE_ISO_SMILES>
C[C@]1([C@H]2CC3(C1CC[C@H]3C(=O)O)[C@H](C=C2C(=O)O)O)CO.C(CCCC(C(CCCCCO)O)O)CCCC(=O)O

>  <PUBCHEM_CACTVS_TPSA>
213

>  <PUBCHEM_MONOISOTOPIC_WEIGHT>
586.33531241

>  <PUBCHEM_TOTAL_CHARGE>
0

>  <PUBCHEM_HEAVY_ATOM_COUNT>
41

>  <PUBCHEM_ATOM_DEF_STEREO_COUNT>
4

>  <PUBCHEM_ATOM_UDEF_STEREO_COUNT>
4

>  <PUBCHEM_BOND_DEF_STEREO_COUNT>
0

>  <PUBCHEM_BOND_UDEF_STEREO_COUNT>
0

>  <PUBCHEM_ISOTOPIC_ATOM_COUNT>
0

>  <PUBCHEM_COMPONENT_COUNT>
2

>  <PUBCHEM_CACTVS_TAUTO_COUNT>
-1

>  <PUBCHEM_COORDINATE_TYPE>
1
5
255

>  <PUBCHEM_BONDANNOTATIONS>
19  1  6
12  16  3
13  18  3
14  23  5
15  43  5
17  25  6
27  7  3
28  8  3

$$$$
