71664720
 OpenBabel06082519392D

104112  0  0  1  0  0  0  0  0999 V2000
    9.5412   -0.8983    0.0000 O   0  0  0  0  0  0  0  0  0  0  0  0
    6.7878   -3.7637    0.0000 O   0  0  0  0  0  0  0  0  0  0  0  0
   11.2732    1.1017    0.0000 O   0  0  0  0  0  0  0  0  0  0  0  0
    8.2175    2.6108    0.0000 O   0  0  0  0  0  0  0  0  0  0  0  0
    5.5956   -1.5716    0.0000 O   0  0  0  0  0  0  0  0  0  0  0  0
    7.4501    2.0800    0.0000 O   0  0  0  0  0  0  0  0  0  0  0  0
    6.0111   -0.9224    0.0000 O   0  0  0  0  0  0  0  0  0  0  0  0
    7.2583    5.1509    0.0000 O   0  0  0  0  0  0  0  0  0  0  0  0
   11.8077    1.8731    0.0000 O   0  0  0  0  0  0  0  0  0  0  0  0
    9.8732   -1.7663    0.0000 O   0  0  0  0  0  0  0  0  0  0  0  0
   10.9093    4.8605    0.0000 O   0  0  0  0  0  0  0  0  0  0  0  0
   10.1108   -4.9554    0.0000 O   0  0  0  0  0  0  0  0  0  0  0  0
   12.1393   -3.3983    0.0000 O   0  0  0  0  0  0  0  0  0  0  0  0
   13.8713   -0.3983    0.0000 O   0  0  0  0  0  0  0  0  0  0  0  0
   13.8713   -2.3983    0.0000 O   0  0  0  0  0  0  0  0  0  0  0  0
    2.8676   -1.8580    0.0000 O   0  0  0  0  0  0  0  0  0  0  0  0
    3.5085   -5.2624    0.0000 O   0  0  0  0  0  0  0  0  0  0  0  0
    2.2053   -3.7452    0.0000 O   0  0  0  0  0  0  0  0  0  0  0  0
    4.2821    4.5758    0.0000 O   0  0  0  0  0  0  0  0  0  0  0  0
    4.8968    1.1667    0.0000 O   0  0  0  0  0  0  0  0  0  0  0  0
    3.6054    2.6939    0.0000 O   0  0  0  0  0  0  0  0  0  0  0  0
    9.5412    1.1017    0.0000 C   0  0  1  0  0  0  0  0  0  0  0  0
   10.4072    0.6017    0.0000 C   0  0  1  0  0  0  0  0  0  0  0  0
    7.4501   -1.8765    0.0000 C   0  0  1  0  0  0  0  0  0  0  0  0
    8.6752    0.6017    0.0000 C   0  0  0  0  0  0  0  0  0  0  0  0
   10.4072   -0.3983    0.0000 C   0  0  1  0  0  0  0  0  0  0  0  0
    8.6752   -0.3983    0.0000 C   0  0  0  0  0  0  0  0  0  0  0  0
    7.7812   -0.9329    0.0000 C   0  0  0  0  0  0  0  0  0  0  0  0
    6.4674   -2.0616    0.0000 C   0  0  1  0  0  0  0  0  0  0  0  0
    9.8832    2.0414    0.0000 C   0  0  0  0  0  0  0  0  0  0  0  0
    6.1363   -3.0052    0.0000 C   0  0  1  0  0  0  0  0  0  0  0  0
    8.1017   -2.6351    0.0000 C   0  0  0  0  0  0  0  0  0  0  0  0
    9.2404    2.8075    0.0000 C   0  0  0  0  0  0  0  0  0  0  0  0
    7.7812    1.1364    0.0000 C   0  0  0  0  0  0  0  0  0  0  0  0
    6.8752   -0.4191    0.0000 C   0  0  0  0  0  0  0  0  0  0  0  0
    9.5825    3.7472    0.0000 C   0  0  0  0  0  0  0  0  0  0  0  0
   11.2732   -0.8983    0.0000 C   0  0  0  0  0  0  0  0  0  0  0  0
    8.9253    4.5553    0.0000 C   0  0  0  0  0  0  0  0  0  0  0  0
    7.8981    4.3824    0.0000 C   0  0  1  0  0  0  0  0  0  0  0  0
    7.7706   -3.5787    0.0000 C   0  0  0  0  0  0  0  0  0  0  0  0
    7.5419    3.4036    0.0000 C   0  0  1  0  0  0  0  0  0  0  0  0
   10.8680    2.2151    0.0000 C   0  0  0  0  0  0  0  0  0  0  0  0
    6.8752    0.6226    0.0000 C   0  0  0  0  0  0  0  0  0  0  0  0
    5.1535   -3.1902    0.0000 C   0  0  0  0  0  0  0  0  0  0  0  0
    9.1223   -2.4266    0.0000 C   0  0  0  0  0  0  0  0  0  0  0  0
   10.5673    3.9208    0.0000 C   0  0  0  0  0  0  0  0  0  0  0  0
   11.2100    3.1548    0.0000 C   0  0  0  0  0  0  0  0  0  0  0  0
   12.1393   -0.3983    0.0000 C   0  0  0  0  0  0  0  0  0  0  0  0
   11.2732   -1.8983    0.0000 C   0  0  0  0  0  0  0  0  0  0  0  0
    8.4370   -4.3792    0.0000 C   0  0  0  0  0  0  0  0  0  0  0  0
    6.5577    3.2261    0.0000 C   0  0  0  0  0  0  0  0  0  0  0  0
    9.8071   -3.2115    0.0000 C   0  0  0  0  0  0  0  0  0  0  0  0
    9.4621   -4.1943    0.0000 C   0  0  0  0  0  0  0  0  0  0  0  0
    4.8224   -4.1338    0.0000 C   0  0  0  0  0  0  0  0  0  0  0  0
    4.5019   -2.4316    0.0000 C   0  0  0  0  0  0  0  0  0  0  0  0
   12.1393   -2.3983    0.0000 C   0  0  0  0  0  0  0  0  0  0  0  0
   13.0053   -0.8983    0.0000 C   0  0  0  0  0  0  0  0  0  0  0  0
    6.2194    2.2852    0.0000 C   0  0  0  0  0  0  0  0  0  0  0  0
    5.9120    3.9897    0.0000 C   0  0  0  0  0  0  0  0  0  0  0  0
   13.0053   -1.8983    0.0000 C   0  0  0  0  0  0  0  0  0  0  0  0
    3.5192   -2.6166    0.0000 C   0  0  0  0  0  0  0  0  0  0  0  0
    3.8397   -4.3188    0.0000 C   0  0  0  0  0  0  0  0  0  0  0  0
    3.1880   -3.5602    0.0000 C   0  0  0  0  0  0  0  0  0  0  0  0
    4.9279    3.8122    0.0000 C   0  0  0  0  0  0  0  0  0  0  0  0
    5.2352    2.1078    0.0000 C   0  0  0  0  0  0  0  0  0  0  0  0
    4.5895    2.8713    0.0000 C   0  0  0  0  0  0  0  0  0  0  0  0
   10.3399    1.3925    0.0000 H   0  0  0  0  0  0  0  0  0  0  0  0
   10.9442    0.2917    0.0000 H   0  0  0  0  0  0  0  0  0  0  0  0
    6.8962   -1.2317    0.0000 H   0  0  0  0  0  0  0  0  0  0  0  0
   10.4072   -1.0183    0.0000 H   0  0  0  0  0  0  0  0  0  0  0  0
    6.5680   -1.4498    0.0000 H   0  0  0  0  0  0  0  0  0  0  0  0
    5.9310   -3.5902    0.0000 H   0  0  0  0  0  0  0  0  0  0  0  0
    9.4662    4.8584    0.0000 H   0  0  0  0  0  0  0  0  0  0  0  0
    8.7192    5.1401    0.0000 H   0  0  0  0  0  0  0  0  0  0  0  0
    7.2873    4.2759    0.0000 H   0  0  0  0  0  0  0  0  0  0  0  0
    7.1424    3.8777    0.0000 H   0  0  0  0  0  0  0  0  0  0  0  0
    6.3394    0.9346    0.0000 H   0  0  0  0  0  0  0  0  0  0  0  0
   11.8102    0.7917    0.0000 H   0  0  0  0  0  0  0  0  0  0  0  0
   11.8206    3.2624    0.0000 H   0  0  0  0  0  0  0  0  0  0  0  0
    5.0623   -1.8878    0.0000 H   0  0  0  0  0  0  0  0  0  0  0  0
   12.1393    0.2217    0.0000 H   0  0  0  0  0  0  0  0  0  0  0  0
   10.7363   -2.2083    0.0000 H   0  0  0  0  0  0  0  0  0  0  0  0
    8.2250   -4.9618    0.0000 H   0  0  0  0  0  0  0  0  0  0  0  0
   10.4159   -3.0944    0.0000 H   0  0  0  0  0  0  0  0  0  0  0  0
    6.8408    2.1947    0.0000 H   0  0  0  0  0  0  0  0  0  0  0  0
    5.4729   -0.6145    0.0000 H   0  0  0  0  0  0  0  0  0  0  0  0
    5.2264   -4.6041    0.0000 H   0  0  0  0  0  0  0  0  0  0  0  0
    4.7072   -1.8466    0.0000 H   0  0  0  0  0  0  0  0  0  0  0  0
    7.4726    5.7327    0.0000 H   0  0  0  0  0  0  0  0  0  0  0  0
   12.2827    2.2716    0.0000 H   0  0  0  0  0  0  0  0  0  0  0  0
    6.6197    1.8118    0.0000 H   0  0  0  0  0  0  0  0  0  0  0  0
    6.1218    4.5731    0.0000 H   0  0  0  0  0  0  0  0  0  0  0  0
   10.4606   -1.9648    0.0000 H   0  0  0  0  0  0  0  0  0  0  0  0
   11.5199    4.9682    0.0000 H   0  0  0  0  0  0  0  0  0  0  0  0
    9.9033   -5.5396    0.0000 H   0  0  0  0  0  0  0  0  0  0  0  0
   12.6762   -3.7083    0.0000 H   0  0  0  0  0  0  0  0  0  0  0  0
   14.4083   -0.7083    0.0000 H   0  0  0  0  0  0  0  0  0  0  0  0
   13.8713   -3.0183    0.0000 H   0  0  0  0  0  0  0  0  0  0  0  0
    2.2583   -1.9727    0.0000 H   0  0  0  0  0  0  0  0  0  0  0  0
    3.9125   -5.7327    0.0000 H   0  0  0  0  0  0  0  0  0  0  0  0
    2.0000   -4.3302    0.0000 H   0  0  0  0  0  0  0  0  0  0  0  0
    4.4919    5.1592    0.0000 H   0  0  0  0  0  0  0  0  0  0  0  0
    4.2866    1.0567    0.0000 H   0  0  0  0  0  0  0  0  0  0  0  0
    3.2050    3.1673    0.0000 H   0  0  0  0  0  0  0  0  0  0  0  0
  1 26  1  0  0  0  0
  1 27  1  0  0  0  0
  2 31  1  0  0  0  0
  2 40  1  0  0  0  0
  3 78  1  0  0  0  0
  4 33  1  0  0  0  0
  4 41  1  0  0  0  0
  5 80  1  0  0  0  0
  6 34  1  0  0  0  0
  6 85  1  0  0  0  0
  7 35  1  0  0  0  0
  7 86  1  0  0  0  0
  8 89  1  0  0  0  0
  9 42  1  0  0  0  0
  9 90  1  0  0  0  0
 10 45  1  0  0  0  0
 10 93  1  0  0  0  0
 11 46  1  0  0  0  0
 11 94  1  0  0  0  0
 12 53  1  0  0  0  0
 12 95  1  0  0  0  0
 13 56  1  0  0  0  0
 13 96  1  0  0  0  0
 14 57  1  0  0  0  0
 14 97  1  0  0  0  0
 15 60  1  0  0  0  0
 15 98  1  0  0  0  0
 16 61  1  0  0  0  0
 16 99  1  0  0  0  0
 17 62  1  0  0  0  0
 17100  1  0  0  0  0
 18 63  1  0  0  0  0
 18101  1  0  0  0  0
 19 64  1  0  0  0  0
 19102  1  0  0  0  0
 20 65  1  0  0  0  0
 20103  1  0  0  0  0
 21 66  1  0  0  0  0
 21104  1  0  0  0  0
 22 23  1  0  0  0  0
 22 25  1  0  0  0  0
 22 30  1  0  0  0  0
 22 67  1  6  0  0  0
 23  3  1  0  0  0  0
 23 26  1  0  0  0  0
 23 68  1  1  0  0  0
 24 28  1  0  0  0  0
 24 29  1  0  0  0  0
 24 32  1  0  0  0  0
 24 69  1  1  0  0  0
 25 27  1  0  0  0  0
 25 34  2  0  0  0  0
 26 37  1  0  0  0  0
 26 70  1  6  0  0  0
 27 28  2  0  0  0  0
 28 35  1  0  0  0  0
 29  5  1  0  0  0  0
 29 31  1  0  0  0  0
 29 71  1  6  0  0  0
 30 33  1  0  0  0  0
 30 42  2  0  0  0  0
 31 44  1  0  0  0  0
 31 72  1  1  0  0  0
 32 40  1  0  0  0  0
 32 45  2  0  0  0  0
 33 36  2  0  0  0  0
 34 43  1  0  0  0  0
 35 43  2  0  0  0  0
 36 38  1  0  0  0  0
 36 46  1  0  0  0  0
 37 48  2  0  0  0  0
 37 49  1  0  0  0  0
 38 39  1  0  0  0  0
 38 73  1  0  0  0  0
 38 74  1  0  0  0  0
 39  8  1  0  0  0  0
 39 41  1  0  0  0  0
 39 75  1  6  0  0  0
 40 50  2  0  0  0  0
 41 51  1  0  0  0  0
 41 76  1  1  0  0  0
 42 47  1  0  0  0  0
 43 77  1  0  0  0  0
 44 54  2  0  0  0  0
 44 55  1  0  0  0  0
 45 52  1  0  0  0  0
 46 47  2  0  0  0  0
 47 79  1  0  0  0  0
 48 57  1  0  0  0  0
 48 81  1  0  0  0  0
 49 56  2  0  0  0  0
 49 82  1  0  0  0  0
 50 53  1  0  0  0  0
 50 83  1  0  0  0  0
 51 58  2  0  0  0  0
 51 59  1  0  0  0  0
 52 53  2  0  0  0  0
 52 84  1  0  0  0  0
 54 62  1  0  0  0  0
 54 87  1  0  0  0  0
 55 61  2  0  0  0  0
 55 88  1  0  0  0  0
 56 60  1  0  0  0  0
 57 60  2  0  0  0  0
 58 65  1  0  0  0  0
 58 91  1  0  0  0  0
 59 64  2  0  0  0  0
 59 92  1  0  0  0  0
 61 63  1  0  0  0  0
 62 63  2  0  0  0  0
 64 66  1  0  0  0  0
 65 66  2  0  0  0  0
M  END
>  <PUBCHEM_COMPOUND_CID>
71664720

>  <PUBCHEM_COMPOUND_CANONICALIZED>
1

>  <PUBCHEM_CACTVS_COMPLEXITY>
1610

>  <PUBCHEM_CACTVS_HBOND_ACCEPTOR>
21

>  <PUBCHEM_CACTVS_HBOND_DONOR>
18

>  <PUBCHEM_CACTVS_ROTATABLE_BOND>
5

>  <PUBCHEM_CACTVS_SUBSKEYS>
AAADcfB8PgAAAAAAAAAAAAAAAAAAAAAAAAA0aNGDAAAAAACRVAAAGgAACAAADRSgmAIwBoAABgCAAiBCAAACCAAgIAAAiAAGiIgNNyKGMRqCeCGlwBULuAfA4PwOoAADCAAIQABAAAYQABCAAAAAAAAAAA==

>  <PUBCHEM_IUPAC_OPENEYE_NAME>
(2R,3S,4R)-2-(3,4,5-trihydroxyphenyl)-4-[(2R,3S)-3,5,7-trihydroxy-2-(3,4,5-trihydroxyphenyl)chroman-8-yl]-8-[(2R,3S,4S)-3,5,7-trihydroxy-2-(3,4,5-trihydroxyphenyl)chroman-4-yl]chromane-3,5,7-triol

>  <PUBCHEM_IUPAC_CAS_NAME>
(2R,3S,4R)-2-(3,4,5-trihydroxyphenyl)-4-[(2R,3S)-3,5,7-trihydroxy-2-(3,4,5-trihydroxyphenyl)-3,4-dihydro-2H-1-benzopyran-8-yl]-8-[(2R,3S,4S)-3,5,7-trihydroxy-2-(3,4,5-trihydroxyphenyl)-3,4-dihydro-2H-1-benzopyran-4-yl]-3,4-dihydro-2H-1-benzopyran-3,5,7-triol

>  <PUBCHEM_IUPAC_NAME_MARKUP>
(2<I>R</I>,3<I>S</I>,4<I>R</I>)-2-(3,4,5-trihydroxyphenyl)-4-[(2<I>R</I>,3<I>S</I>)-3,5,7-trihydroxy-2-(3,4,5-trihydroxyphenyl)-3,4-dihydro-2<I>H</I>-chromen-8-yl]-8-[(2<I>R</I>,3<I>S</I>,4<I>S</I>)-3,5,7-trihydroxy-2-(3,4,5-trihydroxyphenyl)-3,4-dihydro-2<I>H</I>-chromen-4-yl]-3,4-dihydro-2<I>H</I>-chromene-3,5,7-triol

>  <PUBCHEM_IUPAC_NAME>
(2R,3S,4R)-2-(3,4,5-trihydroxyphenyl)-4-[(2R,3S)-3,5,7-trihydroxy-2-(3,4,5-trihydroxyphenyl)-3,4-dihydro-2H-chromen-8-yl]-8-[(2R,3S,4S)-3,5,7-trihydroxy-2-(3,4,5-trihydroxyphenyl)-3,4-dihydro-2H-chromen-4-yl]-3,4-dihydro-2H-chromene-3,5,7-triol

>  <PUBCHEM_IUPAC_SYSTEMATIC_NAME>
(2R,3S,4R)-2-[3,4,5-tris(oxidanyl)phenyl]-4-[(2R,3S)-3,5,7-tris(oxidanyl)-2-[3,4,5-tris(oxidanyl)phenyl]-3,4-dihydro-2H-chromen-8-yl]-8-[(2R,3S,4S)-3,5,7-tris(oxidanyl)-2-[3,4,5-tris(oxidanyl)phenyl]-3,4-dihydro-2H-chromen-4-yl]-3,4-dihydro-2H-chromene-3,5,7-triol

>  <PUBCHEM_IUPAC_TRADITIONAL_NAME>
(2R,3S,4R)-2-(3,4,5-trihydroxyphenyl)-4-[(2R,3S)-3,5,7-trihydroxy-2-(3,4,5-trihydroxyphenyl)chroman-8-yl]-8-[(2R,3S,4S)-3,5,7-trihydroxy-2-(3,4,5-trihydroxyphenyl)chroman-4-yl]chroman-3,5,7-triol

>  <PUBCHEM_IUPAC_INCHI>
InChI=1S/C45H38O21/c46-15-7-18(48)30-29(8-15)64-42(13-3-24(54)37(60)25(55)4-13)39(62)34(30)32-20(50)11-21(51)33-35(40(63)43(66-45(32)33)14-5-26(56)38(61)27(57)6-14)31-19(49)10-17(47)16-9-28(58)41(65-44(16)31)12-1-22(52)36(59)23(53)2-12/h1-8,10-11,28,34-35,39-43,46-63H,9H2/t28-,34-,35+,39-,40-,41+,42+,43+/m0/s1

>  <PUBCHEM_IUPAC_INCHIKEY>
NVTLDVSBUJGIAD-QHBXHTPSSA-N

>  <PUBCHEM_XLOGP3_AA>
2.2

>  <PUBCHEM_EXACT_MASS>
914.19055822

>  <PUBCHEM_MOLECULAR_FORMULA>
C45H38O21

>  <PUBCHEM_MOLECULAR_WEIGHT>
914.8

>  <PUBCHEM_SMILES>
C1[C@@H]([C@H](OC2=C1C(=CC(=C2[C@H]3[C@@H]([C@H](OC4=C(C(=CC(=C34)O)O)[C@H]5[C@@H]([C@H](OC6=CC(=CC(=C56)O)O)C7=CC(=C(C(=C7)O)O)O)O)C8=CC(=C(C(=C8)O)O)O)O)O)O)C9=CC(=C(C(=C9)O)O)O)O

>  <PUBCHEM_OPENEYE_CAN_SMILES>
C1C(C(OC2=C1C(=CC(=C2C3C(C(OC4=C(C(=CC(=C34)O)O)C5C(C(OC6=CC(=CC(=C56)O)O)C7=CC(=C(C(=C7)O)O)O)O)C8=CC(=C(C(=C8)O)O)O)O)O)O)C9=CC(=C(C(=C9)O)O)O)O

>  <PUBCHEM_OPENEYE_ISO_SMILES>
C1[C@@H]([C@H](OC2=C1C(=CC(=C2[C@H]3[C@@H]([C@H](OC4=C(C(=CC(=C34)O)O)[C@H]5[C@@H]([C@H](OC6=CC(=CC(=C56)O)O)C7=CC(=C(C(=C7)O)O)O)O)C8=CC(=C(C(=C8)O)O)O)O)O)O)C9=CC(=C(C(=C9)O)O)O)O

>  <PUBCHEM_CACTVS_TPSA>
392

>  <PUBCHEM_MONOISOTOPIC_WEIGHT>
914.19055822

>  <PUBCHEM_TOTAL_CHARGE>
0

>  <PUBCHEM_HEAVY_ATOM_COUNT>
66

>  <PUBCHEM_ATOM_DEF_STEREO_COUNT>
8

>  <PUBCHEM_ATOM_UDEF_STEREO_COUNT>
0

>  <PUBCHEM_BOND_DEF_STEREO_COUNT>
0

>  <PUBCHEM_BOND_UDEF_STEREO_COUNT>
0

>  <PUBCHEM_ISOTOPIC_ATOM_COUNT>
0

>  <PUBCHEM_COMPONENT_COUNT>
1

>  <PUBCHEM_CACTVS_TAUTO_COUNT>
-1

>  <PUBCHEM_COORDINATE_TYPE>
1
5
255

>  <PUBCHEM_BONDANNOTATIONS>
22  67  6
24  69  5
25  27  8
25  34  8
26  37  5
27  28  8
28  35  8
23  3  6
30  33  8
30  42  8
31  44  6
32  40  8
32  45  8
33  36  8
34  43  8
35  43  8
36  46  8
37  48  8
37  49  8
40  50  8
41  51  6
42  47  8
44  54  8
44  55  8
45  52  8
46  47  8
48  57  8
49  56  8
29  5  5
50  53  8
51  58  8
51  59  8
52  53  8
54  62  8
55  61  8
56  60  8
57  60  8
58  65  8
59  64  8
61  63  8
62  63  8
64  66  8
65  66  8
39  8  5

$$$$
