72423
 OpenBabel06082519392D

 98102  0  0  0  0  0  0  0  0999 V2000
    6.5895   -4.9717    0.0000 O   0  0  0  0  0  0  0  0  0  0  0  0
   12.6280    3.1390    0.0000 O   0  0  0  0  0  0  0  0  0  0  0  0
    8.2379   -4.4400    0.0000 O   0  0  0  0  0  0  0  0  0  0  0  0
   10.9099    2.9196    0.0000 O   0  0  0  0  0  0  0  0  0  0  0  0
    9.0084   -5.9794    0.0000 O   0  0  0  0  0  0  0  0  0  0  0  0
   14.6014   -0.4884    0.0000 O   0  0  0  0  0  0  0  0  0  0  0  0
    9.3224    5.9162    0.0000 O   0  0  0  0  0  0  0  0  0  0  0  0
    2.5718    1.7267    0.0000 O   0  0  0  0  0  0  0  0  0  0  0  0
   10.4034   -4.9527    0.0000 O   0  0  0  0  0  0  0  0  0  0  0  0
   13.5587   -1.8714    0.0000 O   0  0  0  0  0  0  0  0  0  0  0  0
    7.7508    5.1880    0.0000 O   0  0  0  0  0  0  0  0  0  0  0  0
    3.2413    0.1292    0.0000 O   0  0  0  0  0  0  0  0  0  0  0  0
    3.3538   -3.0990    0.0000 O   0  0  0  0  0  0  0  0  0  0  0  0
    4.4172    4.7628    0.0000 O   0  0  0  0  0  0  0  0  0  0  0  0
    2.4878   -1.5990    0.0000 O   0  0  0  0  0  0  0  0  0  0  0  0
    5.8122    5.7895    0.0000 O   0  0  0  0  0  0  0  0  0  0  0  0
    8.1245   -0.9678    0.0000 N   0  0  0  0  0  0  0  0  0  0  0  0
    9.6263    0.4017    0.0000 N   0  0  0  0  0  0  0  0  0  0  0  0
    6.6211    0.4017    0.0000 N   0  0  0  0  0  0  0  0  0  0  0  0
    8.0910    1.7712    0.0000 N   0  0  0  0  0  0  0  0  0  0  0  0
    8.6251   -2.5366    0.0000 C   0  0  0  0  0  0  0  0  0  0  0  0
   11.1632   -0.0654    0.0000 C   0  0  0  0  0  0  0  0  0  0  0  0
    8.9265   -1.5689    0.0000 C   0  0  0  0  0  0  0  0  0  0  0  0
   10.2273   -0.3333    0.0000 C   0  0  0  0  0  0  0  0  0  0  0  0
    7.6239   -2.5366    0.0000 C   0  0  0  0  0  0  0  0  0  0  0  0
   11.1632    0.9357    0.0000 C   0  0  0  0  0  0  0  0  0  0  0  0
    7.3226   -1.6024    0.0000 C   0  0  0  0  0  0  0  0  0  0  0  0
   10.1938    1.2036    0.0000 C   0  0  0  0  0  0  0  0  0  0  0  0
    9.9276   -1.3010    0.0000 C   0  0  0  0  0  0  0  0  0  0  0  0
    9.2178   -3.3420    0.0000 C   0  0  0  0  0  0  0  0  0  0  0  0
   11.9617   -0.6675    0.0000 C   0  0  0  0  0  0  0  0  0  0  0  0
    5.0858   -0.0989    0.0000 C   0  0  0  0  0  0  0  0  0  0  0  0
    6.0535   -0.3668    0.0000 C   0  0  0  0  0  0  0  0  0  0  0  0
    7.5904    3.3734    0.0000 C   0  0  0  0  0  0  0  0  0  0  0  0
    8.5916    3.3734    0.0000 C   0  0  0  0  0  0  0  0  0  0  0  0
    8.9265    2.4392    0.0000 C   0  0  0  0  0  0  0  0  0  0  0  0
    6.3549   -1.3010    0.0000 C   0  0  0  0  0  0  0  0  0  0  0  0
    5.0858    0.9022    0.0000 C   0  0  0  0  0  0  0  0  0  0  0  0
    9.8942    2.1378    0.0000 C   0  0  0  0  0  0  0  0  0  0  0  0
    7.2891    2.4057    0.0000 C   0  0  0  0  0  0  0  0  0  0  0  0
    6.9532   -3.2783    0.0000 C   0  0  0  0  0  0  0  0  0  0  0  0
    6.0535    1.1701    0.0000 C   0  0  0  0  0  0  0  0  0  0  0  0
   11.9589    1.5414    0.0000 C   0  0  0  0  0  0  0  0  0  0  0  0
    4.2198   -0.5989    0.0000 C   0  0  0  0  0  0  0  0  0  0  0  0
    6.9977    4.1787    0.0000 C   0  0  0  0  0  0  0  0  0  0  0  0
    6.3214    2.1378    0.0000 C   0  0  0  0  0  0  0  0  0  0  0  0
    8.8167   -4.2580    0.0000 C   0  0  0  0  0  0  0  0  0  0  0  0
   12.8823   -0.2769    0.0000 C   0  0  0  0  0  0  0  0  0  0  0  0
    9.1672    4.1911    0.0000 C   0  0  0  0  0  0  0  0  0  0  0  0
    4.2900    1.5077    0.0000 C   0  0  0  0  0  0  0  0  0  0  0  0
    4.2198   -1.5990    0.0000 C   0  0  0  0  0  0  0  0  0  0  0  0
    6.0038    4.0681    0.0000 C   0  0  0  0  0  0  0  0  0  0  0  0
    7.2602   -4.2300    0.0000 C   0  0  0  0  0  0  0  0  0  0  0  0
   11.8322    2.5333    0.0000 C   0  0  0  0  0  0  0  0  0  0  0  0
    9.4095   -5.0634    0.0000 C   0  0  0  0  0  0  0  0  0  0  0  0
   13.6808   -0.8789    0.0000 C   0  0  0  0  0  0  0  0  0  0  0  0
    8.7468    5.0984    0.0000 C   0  0  0  0  0  0  0  0  0  0  0  0
    3.3677    1.1212    0.0000 C   0  0  0  0  0  0  0  0  0  0  0  0
    3.3538   -2.0990    0.0000 C   0  0  0  0  0  0  0  0  0  0  0  0
    5.4111    4.8735    0.0000 C   0  0  0  0  0  0  0  0  0  0  0  0
   10.3574   -1.7479    0.0000 H   0  0  0  0  0  0  0  0  0  0  0  0
    8.1164   -0.3479    0.0000 H   0  0  0  0  0  0  0  0  0  0  0  0
    9.0066    0.3801    0.0000 H   0  0  0  0  0  0  0  0  0  0  0  0
    9.7340   -3.6855    0.0000 H   0  0  0  0  0  0  0  0  0  0  0  0
    9.6458   -2.8933    0.0000 H   0  0  0  0  0  0  0  0  0  0  0  0
   11.5081   -1.0902    0.0000 H   0  0  0  0  0  0  0  0  0  0  0  0
   12.2992   -1.1875    0.0000 H   0  0  0  0  0  0  0  0  0  0  0  0
    5.9187   -1.7416    0.0000 H   0  0  0  0  0  0  0  0  0  0  0  0
   10.3307    2.5781    0.0000 H   0  0  0  0  0  0  0  0  0  0  0  0
    6.5725   -2.7889    0.0000 H   0  0  0  0  0  0  0  0  0  0  0  0
    6.4052   -3.5682    0.0000 H   0  0  0  0  0  0  0  0  0  0  0  0
   12.2430    0.9903    0.0000 H   0  0  0  0  0  0  0  0  0  0  0  0
   12.5509    1.7255    0.0000 H   0  0  0  0  0  0  0  0  0  0  0  0
    4.0078   -0.0163    0.0000 H   0  0  0  0  0  0  0  0  0  0  0  0
    3.6092   -0.7066    0.0000 H   0  0  0  0  0  0  0  0  0  0  0  0
    7.5533    4.4540    0.0000 H   0  0  0  0  0  0  0  0  0  0  0  0
    6.8231    4.7737    0.0000 H   0  0  0  0  0  0  0  0  0  0  0  0
    5.8830    2.5762    0.0000 H   0  0  0  0  0  0  0  0  0  0  0  0
    8.3006   -3.9145    0.0000 H   0  0  0  0  0  0  0  0  0  0  0  0
    8.3888   -4.7066    0.0000 H   0  0  0  0  0  0  0  0  0  0  0  0
   13.3358    0.1458    0.0000 H   0  0  0  0  0  0  0  0  0  0  0  0
   12.5447    0.2431    0.0000 H   0  0  0  0  0  0  0  0  0  0  0  0
    9.6045    3.7516    0.0000 H   0  0  0  0  0  0  0  0  0  0  0  0
    9.6759    4.5455    0.0000 H   0  0  0  0  0  0  0  0  0  0  0  0
    4.7454    1.9285    0.0000 H   0  0  0  0  0  0  0  0  0  0  0  0
    3.9547    2.0292    0.0000 H   0  0  0  0  0  0  0  0  0  0  0  0
    4.4319   -2.1816    0.0000 H   0  0  0  0  0  0  0  0  0  0  0  0
    4.8304   -1.4913    0.0000 H   0  0  0  0  0  0  0  0  0  0  0  0
    5.4483    3.7929    0.0000 H   0  0  0  0  0  0  0  0  0  0  0  0
    6.1784    3.4732    0.0000 H   0  0  0  0  0  0  0  0  0  0  0  0
    6.7798   -5.5618    0.0000 H   0  0  0  0  0  0  0  0  0  0  0  0
   13.1998    2.8995    0.0000 H   0  0  0  0  0  0  0  0  0  0  0  0
    9.3759   -6.4787    0.0000 H   0  0  0  0  0  0  0  0  0  0  0  0
   15.0964   -0.8617    0.0000 H   0  0  0  0  0  0  0  0  0  0  0  0
    9.0617    6.4787    0.0000 H   0  0  0  0  0  0  0  0  0  0  0  0
    2.0000    1.4871    0.0000 H   0  0  0  0  0  0  0  0  0  0  0  0
    2.8169   -3.4090    0.0000 H   0  0  0  0  0  0  0  0  0  0  0  0
    4.0497    5.2622    0.0000 H   0  0  0  0  0  0  0  0  0  0  0  0
  1 53  1  0  0  0  0
  1 91  1  0  0  0  0
  2 54  1  0  0  0  0
  2 92  1  0  0  0  0
  3 53  2  0  0  0  0
  4 54  2  0  0  0  0
  5 55  1  0  0  0  0
  5 93  1  0  0  0  0
  6 56  1  0  0  0  0
  6 94  1  0  0  0  0
  7 57  1  0  0  0  0
  7 95  1  0  0  0  0
  8 58  1  0  0  0  0
  8 96  1  0  0  0  0
  9 55  2  0  0  0  0
 10 56  2  0  0  0  0
 11 57  2  0  0  0  0
 12 58  2  0  0  0  0
 13 59  1  0  0  0  0
 13 97  1  0  0  0  0
 14 60  1  0  0  0  0
 14 98  1  0  0  0  0
 15 59  2  0  0  0  0
 16 60  2  0  0  0  0
 17 23  1  0  0  0  0
 17 27  1  0  0  0  0
 17 62  1  0  0  0  0
 18 24  1  0  0  0  0
 18 28  1  0  0  0  0
 18 63  1  0  0  0  0
 19 33  2  0  0  0  0
 19 42  1  0  0  0  0
 20 36  1  0  0  0  0
 20 40  2  0  0  0  0
 21 23  1  0  0  0  0
 21 25  2  0  0  0  0
 21 30  1  0  0  0  0
 22 24  2  0  0  0  0
 22 26  1  0  0  0  0
 22 31  1  0  0  0  0
 23 29  2  0  0  0  0
 24 29  1  0  0  0  0
 25 27  1  0  0  0  0
 25 41  1  0  0  0  0
 26 28  2  0  0  0  0
 26 43  1  0  0  0  0
 27 37  2  0  0  0  0
 28 39  1  0  0  0  0
 29 61  1  0  0  0  0
 30 47  1  0  0  0  0
 30 64  1  0  0  0  0
 30 65  1  0  0  0  0
 31 48  1  0  0  0  0
 31 66  1  0  0  0  0
 31 67  1  0  0  0  0
 32 33  1  0  0  0  0
 32 38  2  0  0  0  0
 32 44  1  0  0  0  0
 33 37  1  0  0  0  0
 34 35  2  0  0  0  0
 34 40  1  0  0  0  0
 34 45  1  0  0  0  0
 35 36  1  0  0  0  0
 35 49  1  0  0  0  0
 36 39  2  0  0  0  0
 37 68  1  0  0  0  0
 38 42  1  0  0  0  0
 38 50  1  0  0  0  0
 39 69  1  0  0  0  0
 40 46  1  0  0  0  0
 41 53  1  0  0  0  0
 41 70  1  0  0  0  0
 41 71  1  0  0  0  0
 42 46  2  0  0  0  0
 43 54  1  0  0  0  0
 43 72  1  0  0  0  0
 43 73  1  0  0  0  0
 44 51  1  0  0  0  0
 44 74  1  0  0  0  0
 44 75  1  0  0  0  0
 45 52  1  0  0  0  0
 45 76  1  0  0  0  0
 45 77  1  0  0  0  0
 46 78  1  0  0  0  0
 47 55  1  0  0  0  0
 47 79  1  0  0  0  0
 47 80  1  0  0  0  0
 48 56  1  0  0  0  0
 48 81  1  0  0  0  0
 48 82  1  0  0  0  0
 49 57  1  0  0  0  0
 49 83  1  0  0  0  0
 49 84  1  0  0  0  0
 50 58  1  0  0  0  0
 50 85  1  0  0  0  0
 50 86  1  0  0  0  0
 51 59  1  0  0  0  0
 51 87  1  0  0  0  0
 51 88  1  0  0  0  0
 52 60  1  0  0  0  0
 52 89  1  0  0  0  0
 52 90  1  0  0  0  0
M  END
>  <PUBCHEM_COMPOUND_CID>
72423

>  <PUBCHEM_COMPOUND_CANONICALIZED>
1

>  <PUBCHEM_CACTVS_COMPLEXITY>
1630

>  <PUBCHEM_CACTVS_HBOND_ACCEPTOR>
18

>  <PUBCHEM_CACTVS_HBOND_DONOR>
10

>  <PUBCHEM_CACTVS_ROTATABLE_BOND>
20

>  <PUBCHEM_CACTVS_SUBSKEYS>
AAADcfB/vgAAAAAAAAAAAAAAAAAAAWLFiwAAAAAAAAAAAAAB/gAAHgAQCAAADAiBngAwyLLJkgCoAyTyTACCgCAhAiAAmSEwZJgIIHLA1NGEZAhk0AHIyAe82fOegAAAAAAAAAAAAAAAAAAAAAAAAAAAAA==

>  <PUBCHEM_IUPAC_OPENEYE_NAME>
3-[7,12,18-tris(2-carboxyethyl)-3,8,13,17-tetrakis(carboxymethyl)-21,24-dihydroporphyrin-2-yl]propanoic acid

>  <PUBCHEM_IUPAC_CAS_NAME>
3-[7,12,18-tris(2-carboxyethyl)-3,8,13,17-tetrakis(carboxymethyl)-21,24-dihydroporphyrin-2-yl]propanoic acid

>  <PUBCHEM_IUPAC_NAME_MARKUP>
3-[7,12,18-tris(2-carboxyethyl)-3,8,13,17-tetrakis(carboxymethyl)-21,24-dihydroporphyrin-2-yl]propanoic acid

>  <PUBCHEM_IUPAC_NAME>
3-[7,12,18-tris(2-carboxyethyl)-3,8,13,17-tetrakis(carboxymethyl)-21,24-dihydroporphyrin-2-yl]propanoic acid

>  <PUBCHEM_IUPAC_SYSTEMATIC_NAME>
3-[3,8,13,17-tetrakis(2-hydroxy-2-oxoethyl)-7,12,18-tris(3-hydroxy-3-oxopropyl)-21,24-dihydroporphyrin-2-yl]propanoic acid

>  <PUBCHEM_IUPAC_TRADITIONAL_NAME>
3-[7,12,18-tris(2-carboxyethyl)-3,8,13,17-tetrakis(carboxymethyl)-21,24-dihydroporphin-2-yl]propionic acid

>  <PUBCHEM_IUPAC_INCHI>
InChI=1S/C40H38N4O16/c45-33(46)5-1-17-21(9-37(53)54)29-14-27-19(3-7-35(49)50)22(10-38(55)56)30(43-27)15-28-20(4-8-36(51)52)24(12-40(59)60)32(44-28)16-31-23(11-39(57)58)18(2-6-34(47)48)26(42-31)13-25(17)41-29/h13-16,41-42H,1-12H2,(H,45,46)(H,47,48)(H,49,50)(H,51,52)(H,53,54)(H,55,56)(H,57,58)(H,59,60)

>  <PUBCHEM_IUPAC_INCHIKEY>
PMCXJBQHQIFCOG-UHFFFAOYSA-N

>  <PUBCHEM_XLOGP3_AA>
-1

>  <PUBCHEM_EXACT_MASS>
830.22828114

>  <PUBCHEM_MOLECULAR_FORMULA>
C40H38N4O16

>  <PUBCHEM_MOLECULAR_WEIGHT>
830.7

>  <PUBCHEM_SMILES>
C1=C2C(=C(C(=CC3=NC(=CC4=NC(=CC5=C(C(=C1N5)CCC(=O)O)CC(=O)O)C(=C4CCC(=O)O)CC(=O)O)C(=C3CCC(=O)O)CC(=O)O)N2)CC(=O)O)CCC(=O)O

>  <PUBCHEM_OPENEYE_CAN_SMILES>
C1=C2C(=C(C(=CC3=NC(=CC4=NC(=CC5=C(C(=C1N5)CCC(=O)O)CC(=O)O)C(=C4CCC(=O)O)CC(=O)O)C(=C3CCC(=O)O)CC(=O)O)N2)CC(=O)O)CCC(=O)O

>  <PUBCHEM_OPENEYE_ISO_SMILES>
C1=C2C(=C(C(=CC3=NC(=CC4=NC(=CC5=C(C(=C1N5)CCC(=O)O)CC(=O)O)C(=C4CCC(=O)O)CC(=O)O)C(=C3CCC(=O)O)CC(=O)O)N2)CC(=O)O)CCC(=O)O

>  <PUBCHEM_CACTVS_TPSA>
356

>  <PUBCHEM_MONOISOTOPIC_WEIGHT>
830.22828114

>  <PUBCHEM_TOTAL_CHARGE>
0

>  <PUBCHEM_HEAVY_ATOM_COUNT>
60

>  <PUBCHEM_ATOM_DEF_STEREO_COUNT>
0

>  <PUBCHEM_ATOM_UDEF_STEREO_COUNT>
0

>  <PUBCHEM_BOND_DEF_STEREO_COUNT>
0

>  <PUBCHEM_BOND_UDEF_STEREO_COUNT>
0

>  <PUBCHEM_ISOTOPIC_ATOM_COUNT>
0

>  <PUBCHEM_COMPONENT_COUNT>
1

>  <PUBCHEM_CACTVS_TAUTO_COUNT>
-1

>  <PUBCHEM_COORDINATE_TYPE>
1
5
255

>  <PUBCHEM_BONDANNOTATIONS>
17  23  8
17  27  8
18  24  8
18  28  8
19  33  8
19  42  8
20  36  8
20  40  8
21  23  8
21  25  8
22  24  8
22  26  8
23  29  8
24  29  8
25  27  8
26  28  8
27  37  8
28  39  8
33  37  8
36  39  8
40  46  8
42  46  8

$$$$
