72682772
 OpenBabel06082519392D

181186  0  0  1  0  0  0  0  0999 V2000
   15.6940   20.9954    0.0000 Co  0  2  0  0  0  0  0  0  0  0  0  0
    6.5812    8.4810    0.0000 P   0  0  3  0  0  0  0  0  0  0  0  0
   13.5918   15.3603    0.0000 O   0  0  0  0  0  0  0  0  0  0  0  0
   12.3613   15.0315    0.0000 O   0  0  0  0  0  0  0  0  0  0  0  0
    9.7128   11.8266    0.0000 O   0  0  0  0  0  0  0  0  0  0  0  0
   14.9814   20.2939    0.0000 O   0  5  0  0  0  0  0  0  0  0  0  0
   12.0579   21.5874    0.0000 O   0  0  0  0  0  0  0  0  0  0  0  0
    7.5885   22.9778    0.0000 O   0  5  0  0  0  0  0  0  0  0  0  0
    4.5417   15.3660    0.0000 O   0  5  0  0  0  0  0  0  0  0  0  0
    7.3902    9.0688    0.0000 O   0  0  0  0  0  0  0  0  0  0  0  0
    5.7722    7.8932    0.0000 O   0  0  0  0  0  0  0  0  0  0  0  0
    7.1690    7.6720    0.0000 O   0  0  0  0  0  0  0  0  0  0  0  0
    5.9934    9.2900    0.0000 O   0  0  0  0  0  0  0  0  0  0  0  0
    6.5348    5.4205    0.0000 O   0  0  0  0  0  0  0  0  0  0  0  0
    4.1554    6.4375    0.0000 O   0  0  0  0  0  0  0  0  0  0  0  0
    8.4653    6.2176    0.0000 O   0  0  0  0  0  0  0  0  0  0  0  0
   11.3478   17.6696    0.0000 N   0  0  0  0  0  0  0  0  0  0  0  0
    9.8864   16.3369    0.0000 N   0  0  0  0  0  0  0  0  0  0  0  0
    9.8538   19.0024    0.0000 N   0  0  0  0  0  0  0  0  0  0  0  0
    8.4233   17.6696    0.0000 N   0  0  0  0  0  0  0  0  0  0  0  0
   15.1980   16.0084    0.0000 N   0  0  0  0  0  0  0  0  0  0  0  0
   12.5530   13.3101    0.0000 N   0  0  0  0  0  0  0  0  0  0  0  0
    7.9902   11.6456    0.0000 N   0  0  0  0  0  0  0  0  0  0  0  0
   13.7663   21.5282    0.0000 N   0  0  0  0  0  0  0  0  0  0  0  0
   11.1695   23.0742    0.0000 N   0  0  0  0  0  0  0  0  0  0  0  0
    6.1935   21.9512    0.0000 N   0  0  0  0  0  0  0  0  0  0  0  0
    3.4930   16.7445    0.0000 N   0  0  0  0  0  0  0  0  0  0  0  0
    5.0403    4.4500    0.0000 N   0  3  0  0  0  0  0  0  0  0  0  0
    3.8424    3.3751    0.0000 N   0  0  0  0  0  0  0  0  0  0  0  0
    0.0000   11.4462    0.0000 N   0  0  0  0  0  0  0  0  0  0  0  0
   11.9328   16.9544    0.0000 C   0  0  3  0  0  0  0  0  0  0  0  0
   12.8435   17.2151    0.0000 C   0  0  3  0  0  0  0  0  0  0  0  0
   10.6668   15.7519    0.0000 C   0  0  3  0  0  0  0  0  0  0  0  0
   10.3736   14.8102    0.0000 C   0  0  3  0  0  0  0  0  0  0  0  0
   12.8435   18.1893    0.0000 C   0  0  3  0  0  0  0  0  0  0  0  0
    9.3992   14.8102    0.0000 C   0  0  3  0  0  0  0  0  0  0  0  0
   11.9002   18.4500    0.0000 C   0  0  0  0  0  0  0  0  0  0  0  0
   13.8337   17.0754    0.0000 C   0  0  0  0  0  0  0  0  0  0  0  0
    9.1059   15.7193    0.0000 C   0  0  0  0  0  0  0  0  0  0  0  0
   12.4290   16.0861    0.0000 C   0  0  0  0  0  0  0  0  0  0  0  0
   13.0166   16.2302    0.0000 C   0  0  0  0  0  0  0  0  0  0  0  0
   13.5561   18.8908    0.0000 C   0  0  0  0  0  0  0  0  0  0  0  0
   10.9663   14.0048    0.0000 C   0  0  0  0  0  0  0  0  0  0  0  0
    9.5038   13.8157    0.0000 C   0  0  0  0  0  0  0  0  0  0  0  0
    8.4857   14.4035    0.0000 C   0  0  0  0  0  0  0  0  0  0  0  0
   11.6085   19.3591    0.0000 C   0  0  0  0  0  0  0  0  0  0  0  0
    8.1642   16.0126    0.0000 C   0  0  0  0  0  0  0  0  0  0  0  0
   10.3410   20.5616    0.0000 C   0  0  3  0  0  0  0  0  0  0  0  0
   10.6668   19.6524    0.0000 C   0  0  0  0  0  0  0  0  0  0  0  0
   13.3049   19.8588    0.0000 C   0  0  0  0  0  0  0  0  0  0  0  0
   14.2078   16.1480    0.0000 C   0  0  0  0  0  0  0  0  0  0  0  0
    8.6947   13.2279    0.0000 C   0  0  0  0  0  0  0  0  0  0  0  0
    9.3666   20.5616    0.0000 C   0  0  3  0  0  0  0  0  0  0  0  0
    7.8710   16.9217    0.0000 C   0  0  0  0  0  0  0  0  0  0  0  0
    6.9293   17.1825    0.0000 C   0  0  3  0  0  0  0  0  0  0  0  0
   11.9602   14.1155    0.0000 C   0  0  0  0  0  0  0  0  0  0  0  0
    6.9293   18.1567    0.0000 C   0  0  0  0  0  0  0  0  0  0  0  0
    9.0733   19.6198    0.0000 C   0  0  0  0  0  0  0  0  0  0  0  0
   12.3434   20.0373    0.0000 C   0  0  0  0  0  0  0  0  0  0  0  0
    7.4935   15.2709    0.0000 C   0  0  0  0  0  0  0  0  0  0  0  0
    7.8710   18.4174    0.0000 C   0  0  0  0  0  0  0  0  0  0  0  0
   10.3260   21.5615    0.0000 C   0  0  0  0  0  0  0  0  0  0  0  0
   11.2873   20.8848    0.0000 C   0  0  0  0  0  0  0  0  0  0  0  0
    8.7739   21.3670    0.0000 C   0  0  0  0  0  0  0  0  0  0  0  0
    8.1317   19.3591    0.0000 C   0  0  0  0  0  0  0  0  0  0  0  0
    6.1334   16.5770    0.0000 C   0  0  0  0  0  0  0  0  0  0  0  0
    8.7993   12.2334    0.0000 C   0  0  0  0  0  0  0  0  0  0  0  0
   14.0175   20.5603    0.0000 C   0  0  0  0  0  0  0  0  0  0  0  0
    5.9295   18.1787    0.0000 C   0  0  0  0  0  0  0  0  0  0  0  0
    6.6413   19.1143    0.0000 C   0  0  0  0  0  0  0  0  0  0  0  0
    7.7801   21.2564    0.0000 C   0  0  0  0  0  0  0  0  0  0  0  0
   11.1845   22.0744    0.0000 C   0  0  0  0  0  0  0  0  0  0  0  0
    5.2111   16.9635    0.0000 C   0  0  0  0  0  0  0  0  0  0  0  0
    8.0948   10.6511    0.0000 C   0  0  0  0  0  0  0  0  0  0  0  0
    7.1874   22.0618    0.0000 C   0  0  0  0  0  0  0  0  0  0  0  0
    4.4152   16.3580    0.0000 C   0  0  0  0  0  0  0  0  0  0  0  0
    7.2857   10.0633    0.0000 C   0  0  3  0  0  0  0  0  0  0  0  0
    6.3722   10.4700    0.0000 C   0  0  0  0  0  0  0  0  0  0  0  0
    5.8767    6.8987    0.0000 C   0  0  3  0  0  0  0  0  0  0  0  0
    5.1336    6.2296    0.0000 C   0  0  3  0  0  0  0  0  0  0  0  0
    6.7427    6.3987    0.0000 C   0  0  3  0  0  0  0  0  0  0  0  0
    5.5403    5.3160    0.0000 C   0  0  3  0  0  0  0  0  0  0  0  0
    7.6563    6.8054    0.0000 C   0  0  0  0  0  0  0  0  0  0  0  0
    5.4454    3.5422    0.0000 C   0  0  0  0  0  0  0  0  0  0  0  0
    4.0516    4.3470    0.0000 C   0  0  0  0  0  0  0  0  0  0  0  0
    4.7011    2.8744    0.0000 C   0  0  0  0  0  0  0  0  0  0  0  0
    6.3959    3.2315    0.0000 C   0  0  0  0  0  0  0  0  0  0  0  0
    4.9073    1.8958    0.0000 C   0  0  0  0  0  0  0  0  0  0  0  0
    6.6021    2.2530    0.0000 C   0  0  0  0  0  0  0  0  0  0  0  0
    5.8578    1.5852    0.0000 C   0  0  0  0  0  0  0  0  0  0  0  0
    7.5526    1.9424    0.0000 C   0  0  0  0  0  0  0  0  0  0  0  0
    6.0640    0.6067    0.0000 C   0  0  0  0  0  0  0  0  0  0  0  0
    1.0000   11.4462    0.0000 C   0  0  0  0  0  3  0  0  0  0  0  0
   11.1932   15.4244    0.0000 H   0  0  0  0  0  0  0  0  0  0  0  0
   10.0938   14.2569    0.0000 H   0  0  0  0  0  0  0  0  0  0  0  0
   13.4153   17.9498    0.0000 H   0  0  0  0  0  0  0  0  0  0  0  0
   14.4402   17.2040    0.0000 H   0  0  0  0  0  0  0  0  0  0  0  0
   13.8123   17.6950    0.0000 H   0  0  0  0  0  0  0  0  0  0  0  0
   11.8907   15.7785    0.0000 H   0  0  0  0  0  0  0  0  0  0  0  0
   12.7366   15.5479    0.0000 H   0  0  0  0  0  0  0  0  0  0  0  0
   12.9673   16.3938    0.0000 H   0  0  0  0  0  0  0  0  0  0  0  0
   12.4060   16.1228    0.0000 H   0  0  0  0  0  0  0  0  0  0  0  0
   13.1240   15.6195    0.0000 H   0  0  0  0  0  0  0  0  0  0  0  0
   13.6273   16.3375    0.0000 H   0  0  0  0  0  0  0  0  0  0  0  0
   13.9077   18.3802    0.0000 H   0  0  0  0  0  0  0  0  0  0  0  0
   14.1200   19.1484    0.0000 H   0  0  0  0  0  0  0  0  0  0  0  0
   10.4108   13.7296    0.0000 H   0  0  0  0  0  0  0  0  0  0  0  0
   11.1409   13.4099    0.0000 H   0  0  0  0  0  0  0  0  0  0  0  0
    9.7756   13.2584    0.0000 H   0  0  0  0  0  0  0  0  0  0  0  0
   10.0997   13.9865    0.0000 H   0  0  0  0  0  0  0  0  0  0  0  0
    8.2335   14.9699    0.0000 H   0  0  0  0  0  0  0  0  0  0  0  0
    7.9193   14.1513    0.0000 H   0  0  0  0  0  0  0  0  0  0  0  0
    8.7379   13.8371    0.0000 H   0  0  0  0  0  0  0  0  0  0  0  0
   12.9532   20.3694    0.0000 H   0  0  0  0  0  0  0  0  0  0  0  0
   12.7409   19.6012    0.0000 H   0  0  0  0  0  0  0  0  0  0  0  0
    8.4230   13.7851    0.0000 H   0  0  0  0  0  0  0  0  0  0  0  0
    8.0988   13.0570    0.0000 H   0  0  0  0  0  0  0  0  0  0  0  0
    8.7552   20.4590    0.0000 H   0  0  0  0  0  0  0  0  0  0  0  0
    7.0464   16.5736    0.0000 H   0  0  0  0  0  0  0  0  0  0  0  0
   12.7639   19.5817    0.0000 H   0  0  0  0  0  0  0  0  0  0  0  0
   12.7990   20.4578    0.0000 H   0  0  0  0  0  0  0  0  0  0  0  0
   11.9229   20.4929    0.0000 H   0  0  0  0  0  0  0  0  0  0  0  0
    9.8554   18.3824    0.0000 H   0  0  0  0  0  0  0  0  0  0  0  0
    7.0336   15.6867    0.0000 H   0  0  0  0  0  0  0  0  0  0  0  0
    7.0776   14.8110    0.0000 H   0  0  0  0  0  0  0  0  0  0  0  0
    7.9534   14.8551    0.0000 H   0  0  0  0  0  0  0  0  0  0  0  0
   10.1053   22.1408    0.0000 H   0  0  0  0  0  0  0  0  0  0  0  0
    9.7171   21.4447    0.0000 H   0  0  0  0  0  0  0  0  0  0  0  0
   11.4877   20.2981    0.0000 H   0  0  0  0  0  0  0  0  0  0  0  0
   11.8740   21.0852    0.0000 H   0  0  0  0  0  0  0  0  0  0  0  0
   11.0869   21.4715    0.0000 H   0  0  0  0  0  0  0  0  0  0  0  0
    9.3295   21.6422    0.0000 H   0  0  0  0  0  0  0  0  0  0  0  0
    8.5994   21.9619    0.0000 H   0  0  0  0  0  0  0  0  0  0  0  0
    7.6933   19.7975    0.0000 H   0  0  0  0  0  0  0  0  0  0  0  0
    5.7981   16.0555    0.0000 H   0  0  0  0  0  0  0  0  0  0  0  0
    6.5888   16.1562    0.0000 H   0  0  0  0  0  0  0  0  0  0  0  0
   15.5800   16.4968    0.0000 H   0  0  0  0  0  0  0  0  0  0  0  0
   15.4300   15.4334    0.0000 H   0  0  0  0  0  0  0  0  0  0  0  0
    5.9432   18.7986    0.0000 H   0  0  0  0  0  0  0  0  0  0  0  0
    5.3097   18.1924    0.0000 H   0  0  0  0  0  0  0  0  0  0  0  0
    5.9158   17.5589    0.0000 H   0  0  0  0  0  0  0  0  0  0  0  0
    7.2350   19.2929    0.0000 H   0  0  0  0  0  0  0  0  0  0  0  0
    6.4627   19.7081    0.0000 H   0  0  0  0  0  0  0  0  0  0  0  0
    6.0476   18.9358    0.0000 H   0  0  0  0  0  0  0  0  0  0  0  0
   12.3043   12.7422    0.0000 H   0  0  0  0  0  0  0  0  0  0  0  0
   13.1692   13.3787    0.0000 H   0  0  0  0  0  0  0  0  0  0  0  0
    7.2245   20.9812    0.0000 H   0  0  0  0  0  0  0  0  0  0  0  0
    7.9546   20.6614    0.0000 H   0  0  0  0  0  0  0  0  0  0  0  0
    5.5464   17.4850    0.0000 H   0  0  0  0  0  0  0  0  0  0  0  0
    4.7557   17.3842    0.0000 H   0  0  0  0  0  0  0  0  0  0  0  0
    7.4238   11.8978    0.0000 H   0  0  0  0  0  0  0  0  0  0  0  0
   14.2081   21.9632    0.0000 H   0  0  0  0  0  0  0  0  0  0  0  0
    8.3665   10.0938    0.0000 H   0  0  0  0  0  0  0  0  0  0  0  0
    8.6907   10.8219    0.0000 H   0  0  0  0  0  0  0  0  0  0  0  0
   11.7017   23.3922    0.0000 H   0  0  0  0  0  0  0  0  0  0  0  0
   10.6280   23.3762    0.0000 H   0  0  0  0  0  0  0  0  0  0  0  0
    6.7841    9.6989    0.0000 H   0  0  0  0  0  0  0  0  0  0  0  0
    5.8260   22.4506    0.0000 H   0  0  0  0  0  0  0  0  0  0  0  0
    2.9995   16.3691    0.0000 H   0  0  0  0  0  0  0  0  0  0  0  0
    6.6244   11.0364    0.0000 H   0  0  0  0  0  0  0  0  0  0  0  0
    5.8058   10.7222    0.0000 H   0  0  0  0  0  0  0  0  0  0  0  0
    6.1200    9.9036    0.0000 H   0  0  0  0  0  0  0  0  0  0  0  0
    5.2979    7.1209    0.0000 H   0  0  0  0  0  0  0  0  0  0  0  0
    4.9731    6.8284    0.0000 H   0  0  0  0  0  0  0  0  0  0  0  0
    7.2246    6.0085    0.0000 H   0  0  0  0  0  0  0  0  0  0  0  0
    7.7856    7.7368    0.0000 H   0  0  0  0  0  0  0  0  0  0  0  0
    4.9212    5.3485    0.0000 H   0  0  0  0  0  0  0  0  0  0  0  0
    8.1023    7.2361    0.0000 H   0  0  0  0  0  0  0  0  0  0  0  0
    7.3096    7.3194    0.0000 H   0  0  0  0  0  0  0  0  0  0  0  0
    3.9638    7.0271    0.0000 H   0  0  0  0  0  0  0  0  0  0  0  0
    3.6375    4.8084    0.0000 H   0  0  0  0  0  0  0  0  0  0  0  0
    3.2751    3.1249    0.0000 H   0  0  0  0  0  0  0  0  0  0  0  0
    9.0317    6.4698    0.0000 H   0  0  0  0  0  0  0  0  0  0  0  0
    6.8574    3.6456    0.0000 H   0  0  0  0  0  0  0  0  0  0  0  0
    4.4458    1.4818    0.0000 H   0  0  0  0  0  0  0  0  0  0  0  0
    7.3600    1.3530    0.0000 H   0  0  0  0  0  0  0  0  0  0  0  0
    8.1420    1.7497    0.0000 H   0  0  0  0  0  0  0  0  0  0  0  0
    7.7452    2.5317    0.0000 H   0  0  0  0  0  0  0  0  0  0  0  0
    5.4573    0.4788    0.0000 H   0  0  0  0  0  0  0  0  0  0  0  0
    6.1919    0.0000    0.0000 H   0  0  0  0  0  0  0  0  0  0  0  0
    6.6707    0.7345    0.0000 H   0  0  0  0  0  0  0  0  0  0  0  0
  2 10  1  0  0  0  0
  2 11  1  0  0  0  0
  2 12  1  0  0  0  0
  2 13  2  0  0  0  0
  3 51  2  0  0  0  0
  4 56  2  0  0  0  0
  5 67  2  0  0  0  0
  6 68  1  0  0  0  0
  7 72  2  0  0  0  0
  8 75  1  0  0  0  0
  9 76  1  0  0  0  0
 10 77  1  0  0  0  0
 11 79  1  0  0  0  0
 12166  1  0  0  0  0
 14 81  1  0  0  0  0
 14 82  1  0  0  0  0
 15 80  1  0  0  0  0
 15170  1  0  0  0  0
 16 83  1  0  0  0  0
 16173  1  0  0  0  0
 17 31  1  0  0  0  0
 17 37  2  0  0  0  0
 18 33  1  0  0  0  0
 18 39  2  0  0  0  0
 19 49  1  0  0  0  0
 19 58  1  0  0  0  0
 19123  1  0  0  0  0
 20 54  1  0  0  0  0
 20 61  2  0  0  0  0
 21 51  1  0  0  0  0
 21137  1  0  0  0  0
 21138  1  0  0  0  0
 22 56  1  0  0  0  0
 22145  1  0  0  0  0
 22146  1  0  0  0  0
 23 67  1  0  0  0  0
 23 74  1  0  0  0  0
 23151  1  0  0  0  0
 24 68  2  0  0  0  0
 24152  1  0  0  0  0
 25 72  1  0  0  0  0
 25155  1  0  0  0  0
 25156  1  0  0  0  0
 26 75  2  0  0  0  0
 26158  1  0  0  0  0
 27 76  2  0  0  0  0
 27159  1  0  0  0  0
 28 82  1  0  0  0  0
 28 84  1  0  0  0  0
 28 85  2  0  0  0  0
 29 85  1  0  0  0  0
 29 86  1  0  0  0  0
 29172  1  0  0  0  0
 30 93  3  0  0  0  0
 31 32  1  0  0  0  0
 31 33  1  0  0  0  0
 31 40  1  0  0  0  0
 32 35  1  0  0  0  0
 32 38  1  0  0  0  0
 32 41  1  0  0  0  0
 33 34  1  0  0  0  0
 33 94  1  0  0  0  0
 34 36  1  0  0  0  0
 34 43  1  0  0  0  0
 34 95  1  0  0  0  0
 35 37  1  0  0  0  0
 35 42  1  0  0  0  0
 35 96  1  0  0  0  0
 36 39  1  0  0  0  0
 36 44  1  0  0  0  0
 36 45  1  0  0  0  0
 37 46  1  0  0  0  0
 38 51  1  0  0  0  0
 38 97  1  0  0  0  0
 38 98  1  0  0  0  0
 39 47  1  0  0  0  0
 40 99  1  0  0  0  0
 40100  1  0  0  0  0
 40101  1  0  0  0  0
 41102  1  0  0  0  0
 41103  1  0  0  0  0
 41104  1  0  0  0  0
 42 50  1  0  0  0  0
 42105  1  0  0  0  0
 42106  1  0  0  0  0
 43 56  1  0  0  0  0
 43107  1  0  0  0  0
 43108  1  0  0  0  0
 44 52  1  0  0  0  0
 44109  1  0  0  0  0
 44110  1  0  0  0  0
 45111  1  0  0  0  0
 45112  1  0  0  0  0
 45113  1  0  0  0  0
 46 49  2  3  0  0  0
 46 59  1  0  0  0  0
 47 54  2  3  0  0  0
 47 60  1  0  0  0  0
 48 49  1  0  0  0  0
 48 53  1  0  0  0  0
 48 62  1  0  0  0  0
 48 63  1  0  0  0  0
 50 68  1  0  0  0  0
 50114  1  0  0  0  0
 50115  1  0  0  0  0
 52 67  1  0  0  0  0
 52116  1  0  0  0  0
 52117  1  0  0  0  0
 53 58  1  0  0  0  0
 53 64  1  0  0  0  0
 53118  1  0  0  0  0
 54 55  1  0  0  0  0
 55 57  1  0  0  0  0
 55 66  1  0  0  0  0
 55119  1  0  0  0  0
 57 61  1  0  0  0  0
 57 69  1  0  0  0  0
 57 70  1  0  0  0  0
 58 65  2  3  0  0  0
 59120  1  0  0  0  0
 59121  1  0  0  0  0
 59122  1  0  0  0  0
 60124  1  0  0  0  0
 60125  1  0  0  0  0
 60126  1  0  0  0  0
 61 65  1  0  0  0  0
 62 72  1  0  0  0  0
 62127  1  0  0  0  0
 62128  1  0  0  0  0
 63129  1  0  0  0  0
 63130  1  0  0  0  0
 63131  1  0  0  0  0
 64 71  1  0  0  0  0
 64132  1  0  0  0  0
 64133  1  0  0  0  0
 65134  1  0  0  0  0
 66 73  1  0  0  0  0
 66135  1  0  0  0  0
 66136  1  0  0  0  0
 69139  1  0  0  0  0
 69140  1  0  0  0  0
 69141  1  0  0  0  0
 70142  1  0  0  0  0
 70143  1  0  0  0  0
 70144  1  0  0  0  0
 71 75  1  0  0  0  0
 71147  1  0  0  0  0
 71148  1  0  0  0  0
 73 76  1  0  0  0  0
 73149  1  0  0  0  0
 73150  1  0  0  0  0
 74 77  1  0  0  0  0
 74153  1  0  0  0  0
 74154  1  0  0  0  0
 77 78  1  0  0  0  0
 77157  1  0  0  0  0
 78160  1  0  0  0  0
 78161  1  0  0  0  0
 78162  1  0  0  0  0
 79 80  1  0  0  0  0
 79 81  1  0  0  0  0
 79163  1  0  0  0  0
 80 82  1  0  0  0  0
 80164  1  0  0  0  0
 81 83  1  0  0  0  0
 81165  1  0  0  0  0
 82167  1  0  0  0  0
 83168  1  0  0  0  0
 83169  1  0  0  0  0
 84 86  2  0  0  0  0
 84 87  1  0  0  0  0
 85171  1  0  0  0  0
 86 88  1  0  0  0  0
 87 89  2  0  0  0  0
 87174  1  0  0  0  0
 88 90  2  0  0  0  0
 88175  1  0  0  0  0
 89 90  1  0  0  0  0
 89 91  1  0  0  0  0
 90 92  1  0  0  0  0
 91176  1  0  0  0  0
 91177  1  0  0  0  0
 91178  1  0  0  0  0
 92179  1  0  0  0  0
 92180  1  0  0  0  0
 92181  1  0  0  0  0
M  RAD  1  93   2
M  CHG  5   1   2   6  -1   8  -1   9  -1  28   1
M  END
>  <PUBCHEM_COMPOUND_CID>
72682772

>  <PUBCHEM_COMPOUND_CANONICALIZED>
1

>  <PUBCHEM_CACTVS_COMPLEXITY>
3160

>  <PUBCHEM_CACTVS_HBOND_ACCEPTOR>
22

>  <PUBCHEM_CACTVS_HBOND_DONOR>
12

>  <PUBCHEM_CACTVS_ROTATABLE_BOND>
26

>  <PUBCHEM_CACTVS_SUBSKEYS>
AAADcfB//AIAAAAQAAAAAAAAAAAAAWLEiBAwAAAAAAAAAFgB8AAAHgAQCCAAD7zhngY30LfNlxC4QyVzdICCgC2xEqAB2aE4dJiLeLLAmZGeYAhvlgLbyCf8+fKfiAAAQAAQACAQAACAACAAQAAAAAAAAA==

>  <PUBCHEM_IUPAC_INCHI>
InChI=1S/C62H90N13O14P.CN.Co/c1-29-20-39-40(21-30(29)2)75(28-70-39)57-52(84)53(41(27-76)87-57)89-90(85,86)88-31(3)26-69-49(83)18-19-59(8)37(22-46(66)80)56-62(11)61(10,25-48(68)82)36(14-17-45(65)79)51(74-62)33(5)55-60(9,24-47(67)81)34(12-15-43(63)77)38(71-55)23-42-58(6,7)35(13-16-44(64)78)50(72-42)32(4)54(59)73-56;1-2;/h20-21,23,28,31,34-37,41,52-53,56-57,76,84H,12-19,22,24-27H2,1-11H3,(H15,63,64,65,66,67,68,69,71,72,73,74,77,78,79,80,81,82,83,85,86);;/q;;+2/p-2

>  <PUBCHEM_IUPAC_INCHIKEY>
RMRCNWBMXRMIRW-UHFFFAOYSA-L

>  <PUBCHEM_EXACT_MASS>
1354.567399

>  <PUBCHEM_MOLECULAR_FORMULA>
C63H88CoN14O14P

>  <PUBCHEM_MOLECULAR_WEIGHT>
1355.4

>  <PUBCHEM_SMILES>
CC1=CC2=C(C=C1C)[N+](=CN2)C3C(C(C(O3)CO)OP(=O)(O)OC(C)CNC(=O)CCC4(C(C5C6(C(C(C(=N6)C(=C7C(C(C(=CC8=NC(=C(C4=N5)C)C(C8(C)C)CCC(=N)[O-])N7)CCC(=N)[O-])(C)CC(=O)N)C)CCC(=N)[O-])(C)CC(=O)N)C)CC(=O)N)C)O.[C]#N.[Co+2]

>  <PUBCHEM_OPENEYE_CAN_SMILES>
CC1=CC2=C(C=C1C)[N+](=CN2)C3C(C(C(O3)CO)OP(=O)(O)OC(C)CNC(=O)CCC4(C(C5C6(C(C(C(=N6)C(=C7C(C(C(=CC8=NC(=C(C4=N5)C)C(C8(C)C)CCC(=N)[O-])N7)CCC(=N)[O-])(C)CC(=O)N)C)CCC(=N)[O-])(C)CC(=O)N)C)CC(=O)N)C)O.[C]#N.[Co+2]

>  <PUBCHEM_OPENEYE_ISO_SMILES>
CC1=CC2=C(C=C1C)[N+](=CN2)C3C(C(C(O3)CO)OP(=O)(O)OC(C)CNC(=O)CCC4(C(C5C6(C(C(C(=N6)C(=C7C(C(C(=CC8=NC(=C(C4=N5)C)C(C8(C)C)CCC(=N)[O-])N7)CCC(=N)[O-])(C)CC(=O)N)C)CCC(=N)[O-])(C)CC(=O)N)C)CC(=O)N)C)O.[C]#N.[Co+2]

>  <PUBCHEM_CACTVS_TPSA>
497

>  <PUBCHEM_MONOISOTOPIC_WEIGHT>
1354.567399

>  <PUBCHEM_TOTAL_CHARGE>
0

>  <PUBCHEM_HEAVY_ATOM_COUNT>
93

>  <PUBCHEM_ATOM_DEF_STEREO_COUNT>
0

>  <PUBCHEM_ATOM_UDEF_STEREO_COUNT>
14

>  <PUBCHEM_BOND_DEF_STEREO_COUNT>
0

>  <PUBCHEM_BOND_UDEF_STEREO_COUNT>
3

>  <PUBCHEM_ISOTOPIC_ATOM_COUNT>
0

>  <PUBCHEM_COMPONENT_COUNT>
3

>  <PUBCHEM_CACTVS_TAUTO_COUNT>
-1

>  <PUBCHEM_COORDINATE_TYPE>
1
5
255

>  <PUBCHEM_BONDANNOTATIONS>
79  11  3
80  15  3
33  18  3
82  28  3
28  84  8
28  85  8
29  85  8
29  86  8
31  40  3
32  41  3
34  43  3
35  42  3
36  45  3
46  49  1
47  54  1
48  63  3
53  64  3
55  66  3
58  65  1
77  78  3
81  83  3
84  86  8
84  87  8
86  88  8
87  89  8
88  90  8
89  90  8

$$$$
