74193140
 OpenBabel06082519392D

133141  0  0  1  0  0  0  0  0999 V2000
    5.5982    7.3818    0.0000 O   0  0  0  0  0  0  0  0  0  0  0  0
    3.9370    6.2942    0.0000 O   0  0  0  0  0  0  0  0  0  0  0  0
   12.0262    2.0274    0.0000 O   0  0  0  0  0  0  0  0  0  0  0  0
   11.1602    0.5274    0.0000 O   0  0  0  0  0  0  0  0  0  0  0  0
   13.7583    1.0274    0.0000 O   0  0  0  0  0  0  0  0  0  0  0  0
   13.7583   -0.9726    0.0000 O   0  0  0  0  0  0  0  0  0  0  0  0
   12.0262   -1.9726    0.0000 O   0  0  0  0  0  0  0  0  0  0  0  0
    9.4281   -0.4726    0.0000 O   0  0  0  0  0  0  0  0  0  0  0  0
   10.2942   -1.9726    0.0000 O   0  0  0  0  0  0  0  0  0  0  0  0
   12.0262   -3.9726    0.0000 O   0  0  0  0  0  0  0  0  0  0  0  0
   10.2942   -4.9726    0.0000 O   0  0  0  0  0  0  0  0  0  0  0  0
    8.5621   -3.9726    0.0000 O   0  0  0  0  0  0  0  0  0  0  0  0
   11.1602   -5.4726    0.0000 O   0  0  0  0  0  0  0  0  0  0  0  0
   13.7583   -4.9726    0.0000 O   0  0  0  0  0  0  0  0  0  0  0  0
   13.7583   -6.9726    0.0000 O   0  0  0  0  0  0  0  0  0  0  0  0
   12.0262   -7.9726    0.0000 O   0  0  0  0  0  0  0  0  0  0  0  0
    6.6742    5.1511    0.0000 C   0  0  3  0  0  0  0  0  0  0  0  0
    7.5383    5.6545    0.0000 C   0  0  3  0  0  0  0  0  0  0  0  0
    5.9346    5.8154    0.0000 C   0  0  3  0  0  0  0  0  0  0  0  0
    8.4062    5.1578    0.0000 C   0  0  3  0  0  0  0  0  0  0  0  0
    6.3362    6.7247    0.0000 C   0  0  3  0  0  0  0  0  0  0  0  0
    8.4101    4.1578    0.0000 C   0  0  3  0  0  0  0  0  0  0  0  0
    7.3253    6.6255    0.0000 C   0  0  0  0  0  0  0  0  0  0  0  0
    6.6780    4.1511    0.0000 C   0  0  0  0  0  0  0  0  0  0  0  0
    4.9518    5.9183    0.0000 C   0  0  3  0  0  0  0  0  0  0  0  0
    7.5460    3.6545    0.0000 C   0  0  0  0  0  0  0  0  0  0  0  0
    9.3061    3.6266    0.0000 C   0  0  3  0  0  0  0  0  0  0  0  0
    4.7443    6.8844    0.0000 C   0  0  3  0  0  0  0  0  0  0  0  0
    5.8101    4.6478    0.0000 C   0  0  0  0  0  0  0  0  0  0  0  0
    9.2981    5.6959    0.0000 C   0  0  0  0  0  0  0  0  0  0  0  0
   10.2102    4.1439    0.0000 C   0  0  0  0  0  0  0  0  0  0  0  0
    9.2852    2.5418    0.0000 C   0  0  0  0  0  0  0  0  0  0  0  0
    4.2836    5.1743    0.0000 C   0  0  0  0  0  0  0  0  0  0  0  0
    4.6368    7.8786    0.0000 C   0  0  0  0  0  0  0  0  0  0  0  0
   10.2061    5.1856    0.0000 C   0  0  0  0  0  0  0  0  0  0  0  0
    8.4381    3.1299    0.0000 C   0  0  0  0  0  0  0  0  0  0  0  0
   11.1560    3.6123    0.0000 C   0  0  0  0  0  0  0  0  0  0  0  0
   10.2185    1.9885    0.0000 C   0  0  0  0  0  0  0  0  0  0  0  0
   11.1602    2.5274    0.0000 C   0  0  3  0  0  0  0  0  0  0  0  0
    3.7220    8.2826    0.0000 C   0  0  0  0  0  0  0  0  0  0  0  0
    2.9148    7.6924    0.0000 C   0  0  3  0  0  0  0  0  0  0  0  0
    3.0223    6.6982    0.0000 C   0  0  0  0  0  0  0  0  0  0  0  0
    2.0000    8.0965    0.0000 C   0  0  0  0  0  0  0  0  0  0  0  0
   12.0262    1.0274    0.0000 C   0  0  3  0  0  0  0  0  0  0  0  0
   12.8922    0.5274    0.0000 C   0  0  3  0  0  0  0  0  0  0  0  0
   12.8922   -0.4726    0.0000 C   0  0  3  0  0  0  0  0  0  0  0  0
   11.1602   -0.4726    0.0000 C   0  0  3  0  0  0  0  0  0  0  0  0
   12.0262   -0.9726    0.0000 C   0  0  3  0  0  0  0  0  0  0  0  0
   10.2942   -0.9726    0.0000 C   0  0  0  0  0  0  0  0  0  0  0  0
   11.1602   -2.4726    0.0000 C   0  0  3  0  0  0  0  0  0  0  0  0
   11.1602   -3.4726    0.0000 C   0  0  3  0  0  0  0  0  0  0  0  0
   10.2942   -3.9726    0.0000 C   0  0  3  0  0  0  0  0  0  0  0  0
    9.4281   -2.4726    0.0000 C   0  0  3  0  0  0  0  0  0  0  0  0
    9.4281   -3.4726    0.0000 C   0  0  3  0  0  0  0  0  0  0  0  0
   12.0262   -4.9726    0.0000 C   0  0  3  0  0  0  0  0  0  0  0  0
    8.5621   -1.9726    0.0000 C   0  0  0  0  0  0  0  0  0  0  0  0
   12.8922   -5.4726    0.0000 C   0  0  3  0  0  0  0  0  0  0  0  0
   12.8922   -6.4726    0.0000 C   0  0  3  0  0  0  0  0  0  0  0  0
   11.1602   -6.4726    0.0000 C   0  0  3  0  0  0  0  0  0  0  0  0
   12.0262   -6.9726    0.0000 C   0  0  3  0  0  0  0  0  0  0  0  0
   10.2942   -6.9726    0.0000 C   0  0  0  0  0  0  0  0  0  0  0  0
    8.0380    6.0215    0.0000 H   0  0  0  0  0  0  0  0  0  0  0  0
    5.6829    5.2488    0.0000 H   0  0  0  0  0  0  0  0  0  0  0  0
    8.3991    5.7778    0.0000 H   0  0  0  0  0  0  0  0  0  0  0  0
    6.5855    7.2924    0.0000 H   0  0  0  0  0  0  0  0  0  0  0  0
    8.9482    4.4657    0.0000 H   0  0  0  0  0  0  0  0  0  0  0  0
    7.9415    6.6939    0.0000 H   0  0  0  0  0  0  0  0  0  0  0  0
    7.3220    7.2455    0.0000 H   0  0  0  0  0  0  0  0  0  0  0  0
    6.0670    4.2564    0.0000 H   0  0  0  0  0  0  0  0  0  0  0  0
    6.4682    3.5677    0.0000 H   0  0  0  0  0  0  0  0  0  0  0  0
    4.3526    6.0777    0.0000 H   0  0  0  0  0  0  0  0  0  0  0  0
    7.1493    3.1780    0.0000 H   0  0  0  0  0  0  0  0  0  0  0  0
    7.9463    3.1811    0.0000 H   0  0  0  0  0  0  0  0  0  0  0  0
    5.4980    5.1835    0.0000 H   0  0  0  0  0  0  0  0  0  0  0  0
    5.2744    4.3357    0.0000 H   0  0  0  0  0  0  0  0  0  0  0  0
    6.1222    4.1121    0.0000 H   0  0  0  0  0  0  0  0  0  0  0  0
    9.6899    6.1764    0.0000 H   0  0  0  0  0  0  0  0  0  0  0  0
    8.8917    6.1641    0.0000 H   0  0  0  0  0  0  0  0  0  0  0  0
    8.6765    2.6596    0.0000 H   0  0  0  0  0  0  0  0  0  0  0  0
    9.0649    1.9622    0.0000 H   0  0  0  0  0  0  0  0  0  0  0  0
    3.8223    5.5886    0.0000 H   0  0  0  0  0  0  0  0  0  0  0  0
    3.8693    4.7130    0.0000 H   0  0  0  0  0  0  0  0  0  0  0  0
    4.7449    4.7600    0.0000 H   0  0  0  0  0  0  0  0  0  0  0  0
    5.2554    7.8372    0.0000 H   0  0  0  0  0  0  0  0  0  0  0  0
    4.7850    8.4807    0.0000 H   0  0  0  0  0  0  0  0  0  0  0  0
   10.7407    5.4997    0.0000 H   0  0  0  0  0  0  0  0  0  0  0  0
    8.1302    3.6681    0.0000 H   0  0  0  0  0  0  0  0  0  0  0  0
    7.9000    2.8220    0.0000 H   0  0  0  0  0  0  0  0  0  0  0  0
    8.7460    2.5918    0.0000 H   0  0  0  0  0  0  0  0  0  0  0  0
   11.7673    3.5086    0.0000 H   0  0  0  0  0  0  0  0  0  0  0  0
   11.3628    4.1968    0.0000 H   0  0  0  0  0  0  0  0  0  0  0  0
    9.8157    1.5171    0.0000 H   0  0  0  0  0  0  0  0  0  0  0  0
   10.6139    1.5110    0.0000 H   0  0  0  0  0  0  0  0  0  0  0  0
   11.1590    1.9074    0.0000 H   0  0  0  0  0  0  0  0  0  0  0  0
    4.0672    8.7977    0.0000 H   0  0  0  0  0  0  0  0  0  0  0  0
    3.2747    8.7120    0.0000 H   0  0  0  0  0  0  0  0  0  0  0  0
    2.4143    7.3265    0.0000 H   0  0  0  0  0  0  0  0  0  0  0  0
    2.4036    6.7396    0.0000 H   0  0  0  0  0  0  0  0  0  0  0  0
    2.8741    6.0962    0.0000 H   0  0  0  0  0  0  0  0  0  0  0  0
    2.2505    8.6636    0.0000 H   0  0  0  0  0  0  0  0  0  0  0  0
    1.4328    8.3469    0.0000 H   0  0  0  0  0  0  0  0  0  0  0  0
    1.7495    7.5293    0.0000 H   0  0  0  0  0  0  0  0  0  0  0  0
   12.5631    1.3374    0.0000 H   0  0  0  0  0  0  0  0  0  0  0  0
   13.4292    0.2174    0.0000 H   0  0  0  0  0  0  0  0  0  0  0  0
   13.4292   -0.1626    0.0000 H   0  0  0  0  0  0  0  0  0  0  0  0
   10.6232   -0.1626    0.0000 H   0  0  0  0  0  0  0  0  0  0  0  0
   12.5631   -1.2826    0.0000 H   0  0  0  0  0  0  0  0  0  0  0  0
   13.7583    1.6474    0.0000 H   0  0  0  0  0  0  0  0  0  0  0  0
    9.8956   -1.4476    0.0000 H   0  0  0  0  0  0  0  0  0  0  0  0
   10.6927   -1.4476    0.0000 H   0  0  0  0  0  0  0  0  0  0  0  0
   14.2952   -0.6626    0.0000 H   0  0  0  0  0  0  0  0  0  0  0  0
   11.1602   -1.8526    0.0000 H   0  0  0  0  0  0  0  0  0  0  0  0
    9.4281    0.1474    0.0000 H   0  0  0  0  0  0  0  0  0  0  0  0
   11.1602   -4.0926    0.0000 H   0  0  0  0  0  0  0  0  0  0  0  0
    9.7572   -4.2826    0.0000 H   0  0  0  0  0  0  0  0  0  0  0  0
    9.4281   -1.8526    0.0000 H   0  0  0  0  0  0  0  0  0  0  0  0
    8.8912   -3.1627    0.0000 H   0  0  0  0  0  0  0  0  0  0  0  0
   12.5631   -4.6626    0.0000 H   0  0  0  0  0  0  0  0  0  0  0  0
    8.8721   -1.4357    0.0000 H   0  0  0  0  0  0  0  0  0  0  0  0
    8.0252   -1.6626    0.0000 H   0  0  0  0  0  0  0  0  0  0  0  0
    8.2521   -2.5096    0.0000 H   0  0  0  0  0  0  0  0  0  0  0  0
    9.7572   -5.2826    0.0000 H   0  0  0  0  0  0  0  0  0  0  0  0
   13.4292   -5.7826    0.0000 H   0  0  0  0  0  0  0  0  0  0  0  0
    8.0252   -3.6626    0.0000 H   0  0  0  0  0  0  0  0  0  0  0  0
   13.4292   -6.1626    0.0000 H   0  0  0  0  0  0  0  0  0  0  0  0
   10.6232   -6.1626    0.0000 H   0  0  0  0  0  0  0  0  0  0  0  0
   12.5631   -7.2826    0.0000 H   0  0  0  0  0  0  0  0  0  0  0  0
   14.2952   -5.2826    0.0000 H   0  0  0  0  0  0  0  0  0  0  0  0
    9.9842   -6.4357    0.0000 H   0  0  0  0  0  0  0  0  0  0  0  0
    9.7572   -7.2826    0.0000 H   0  0  0  0  0  0  0  0  0  0  0  0
   10.6042   -7.5096    0.0000 H   0  0  0  0  0  0  0  0  0  0  0  0
   13.7583   -7.5926    0.0000 H   0  0  0  0  0  0  0  0  0  0  0  0
   11.4893   -8.2826    0.0000 H   0  0  0  0  0  0  0  0  0  0  0  0
  1 21  1  0  0  0  0
  1 28  1  0  0  0  0
  2 28  1  0  0  0  0
  2 42  1  0  0  0  0
  3 39  1  0  0  0  0
  3 44  1  0  0  0  0
  4 44  1  0  0  0  0
  4 47  1  0  0  0  0
  5 45  1  0  0  0  0
  5108  1  0  0  0  0
  6 46  1  0  0  0  0
  6111  1  0  0  0  0
  7 48  1  0  0  0  0
  7 50  1  0  0  0  0
  8 49  1  0  0  0  0
  8113  1  0  0  0  0
  9 50  1  0  0  0  0
  9 53  1  0  0  0  0
 10 51  1  0  0  0  0
 10 55  1  0  0  0  0
 11 52  1  0  0  0  0
 11122  1  0  0  0  0
 12 54  1  0  0  0  0
 12124  1  0  0  0  0
 13 55  1  0  0  0  0
 13 59  1  0  0  0  0
 14 57  1  0  0  0  0
 14128  1  0  0  0  0
 15 58  1  0  0  0  0
 15132  1  0  0  0  0
 16 60  1  0  0  0  0
 16133  1  0  0  0  0
 17 18  1  0  0  0  0
 17 19  1  0  0  0  0
 17 24  1  0  0  0  0
 17 29  1  0  0  0  0
 18 20  1  0  0  0  0
 18 23  1  0  0  0  0
 18 62  1  0  0  0  0
 19 21  1  0  0  0  0
 19 25  1  0  0  0  0
 19 63  1  0  0  0  0
 20 22  1  0  0  0  0
 20 30  1  0  0  0  0
 20 64  1  0  0  0  0
 21 23  1  0  0  0  0
 21 65  1  0  0  0  0
 22 26  1  0  0  0  0
 22 27  1  0  0  0  0
 22 66  1  0  0  0  0
 23 67  1  0  0  0  0
 23 68  1  0  0  0  0
 24 26  1  0  0  0  0
 24 69  1  0  0  0  0
 24 70  1  0  0  0  0
 25 28  1  0  0  0  0
 25 33  1  0  0  0  0
 25 71  1  0  0  0  0
 26 72  1  0  0  0  0
 26 73  1  0  0  0  0
 27 31  1  0  0  0  0
 27 32  1  0  0  0  0
 27 36  1  0  0  0  0
 28 34  1  0  0  0  0
 29 74  1  0  0  0  0
 29 75  1  0  0  0  0
 29 76  1  0  0  0  0
 30 35  1  0  0  0  0
 30 77  1  0  0  0  0
 30 78  1  0  0  0  0
 31 35  2  0  0  0  0
 31 37  1  0  0  0  0
 32 38  1  0  0  0  0
 32 79  1  0  0  0  0
 32 80  1  0  0  0  0
 33 81  1  0  0  0  0
 33 82  1  0  0  0  0
 33 83  1  0  0  0  0
 34 40  1  0  0  0  0
 34 84  1  0  0  0  0
 34 85  1  0  0  0  0
 35 86  1  0  0  0  0
 36 87  1  0  0  0  0
 36 88  1  0  0  0  0
 36 89  1  0  0  0  0
 37 39  1  0  0  0  0
 37 90  1  0  0  0  0
 37 91  1  0  0  0  0
 38 39  1  0  0  0  0
 38 92  1  0  0  0  0
 38 93  1  0  0  0  0
 39 94  1  0  0  0  0
 40 41  1  0  0  0  0
 40 95  1  0  0  0  0
 40 96  1  0  0  0  0
 41 42  1  0  0  0  0
 41 43  1  0  0  0  0
 41 97  1  0  0  0  0
 42 98  1  0  0  0  0
 42 99  1  0  0  0  0
 43100  1  0  0  0  0
 43101  1  0  0  0  0
 43102  1  0  0  0  0
 44 45  1  0  0  0  0
 44103  1  0  0  0  0
 45 46  1  0  0  0  0
 45104  1  0  0  0  0
 46 48  1  0  0  0  0
 46105  1  0  0  0  0
 47 48  1  0  0  0  0
 47 49  1  0  0  0  0
 47106  1  0  0  0  0
 48107  1  0  0  0  0
 49109  1  0  0  0  0
 49110  1  0  0  0  0
 50 51  1  0  0  0  0
 50112  1  0  0  0  0
 51 52  1  0  0  0  0
 51114  1  0  0  0  0
 52 54  1  0  0  0  0
 52115  1  0  0  0  0
 53 54  1  0  0  0  0
 53 56  1  0  0  0  0
 53116  1  0  0  0  0
 54117  1  0  0  0  0
 55 57  1  0  0  0  0
 55118  1  0  0  0  0
 56119  1  0  0  0  0
 56120  1  0  0  0  0
 56121  1  0  0  0  0
 57 58  1  0  0  0  0
 57123  1  0  0  0  0
 58 60  1  0  0  0  0
 58125  1  0  0  0  0
 59 60  1  0  0  0  0
 59 61  1  0  0  0  0
 59126  1  0  0  0  0
 60127  1  0  0  0  0
 61129  1  0  0  0  0
 61130  1  0  0  0  0
 61131  1  0  0  0  0
M  END
>  <PUBCHEM_COMPOUND_CID>
74193140

>  <PUBCHEM_COMPOUND_CANONICALIZED>
1

>  <PUBCHEM_CACTVS_COMPLEXITY>
1600

>  <PUBCHEM_CACTVS_HBOND_ACCEPTOR>
16

>  <PUBCHEM_CACTVS_HBOND_DONOR>
8

>  <PUBCHEM_CACTVS_ROTATABLE_BOND>
7

>  <PUBCHEM_CACTVS_SUBSKEYS>
AAADcfB8PgAAAAAAAAAAAAAAAAAAAaIAAAA0aJEiAAASAGCAAAAAGgAACAAADxSwgAMCCAAABgCAAiBCAAAAAAAgAAAACAAAAAgREAIAAQAiQAAFwAAPAAPA4PwPgAAAAAAAAADAAAQAACAAAYAADAAAAA==

>  <PUBCHEM_IUPAC_OPENEYE_NAME>
2-[2-[4,5-dihydroxy-2-(hydroxymethyl)-6-(5',7,9,13-tetramethylspiro[5-oxapentacyclo[10.8.0.02,9.04,8.013,18]icos-18-ene-6,2'-tetrahydropyran]-16-yl)oxy-tetrahydropyran-3-yl]oxy-4,5-dihydroxy-6-methyl-tetrahydropyran-3-yl]oxy-6-methyl-tetrahydropyran-3,4,5-triol

>  <PUBCHEM_IUPAC_CAS_NAME>
2-[[2-[[4,5-dihydroxy-2-(hydroxymethyl)-6-[(5',7,9,13-tetramethyl-16-spiro[5-oxapentacyclo[10.8.0.02,9.04,8.013,18]eicos-18-ene-6,2'-oxane]yl)oxy]-3-oxanyl]oxy]-4,5-dihydroxy-6-methyl-3-oxanyl]oxy]-6-methyloxane-3,4,5-triol

>  <PUBCHEM_IUPAC_NAME_MARKUP>
2-[2-[4,5-dihydroxy-2-(hydroxymethyl)-6-(5&apos;,7,9,13-tetramethylspiro[5-oxapentacyclo[10.8.0.0<SUP>2,9</SUP>.0<SUP>4,8</SUP>.0<SUP>13,18</SUP>]icos-18-ene-6,2&apos;-oxane]-16-yl)oxyoxan-3-yl]oxy-4,5-dihydroxy-6-methyloxan-3-yl]oxy-6-methyloxane-3,4,5-triol

>  <PUBCHEM_IUPAC_NAME>
2-[2-[4,5-dihydroxy-2-(hydroxymethyl)-6-(5',7,9,13-tetramethylspiro[5-oxapentacyclo[10.8.0.02,9.04,8.013,18]icos-18-ene-6,2'-oxane]-16-yl)oxyoxan-3-yl]oxy-4,5-dihydroxy-6-methyloxan-3-yl]oxy-6-methyloxane-3,4,5-triol

>  <PUBCHEM_IUPAC_SYSTEMATIC_NAME>
2-[2-[2-(hydroxymethyl)-4,5-bis(oxidanyl)-6-(5',7,9,13-tetramethylspiro[5-oxapentacyclo[10.8.0.02,9.04,8.013,18]icos-18-ene-6,2'-oxane]-16-yl)oxy-oxan-3-yl]oxy-6-methyl-4,5-bis(oxidanyl)oxan-3-yl]oxy-6-methyl-oxane-3,4,5-triol

>  <PUBCHEM_IUPAC_TRADITIONAL_NAME>
2-[2-[4,5-dihydroxy-2-methylol-6-(5',7,9,13-tetramethylspiro[5-oxapentacyclo[10.8.0.02,9.04,8.013,18]eicos-18-ene-6,2'-tetrahydropyran]-16-yl)oxy-tetrahydropyran-3-yl]oxy-4,5-dihydroxy-6-methyl-tetrahydropyran-3-yl]oxy-6-methyl-tetrahydropyran-3,4,5-triol

>  <PUBCHEM_IUPAC_INCHI>
InChI=1S/C45H72O16/c1-19-9-14-45(54-18-19)20(2)30-28(61-45)16-27-25-8-7-23-15-24(10-12-43(23,5)26(25)11-13-44(27,30)6)57-41-37(53)35(51)38(29(17-46)58-41)59-42-39(34(50)32(48)22(4)56-42)60-40-36(52)33(49)31(47)21(3)55-40/h7,19-22,24-42,46-53H,8-18H2,1-6H3

>  <PUBCHEM_IUPAC_INCHIKEY>
SLKDWTBGYHJQNM-UHFFFAOYSA-N

>  <PUBCHEM_XLOGP3_AA>
1.3

>  <PUBCHEM_EXACT_MASS>
868.48203620

>  <PUBCHEM_MOLECULAR_FORMULA>
C45H72O16

>  <PUBCHEM_MOLECULAR_WEIGHT>
869.0

>  <PUBCHEM_SMILES>
CC1CCC2(C(C3C(O2)CC4C3(CCC5C4CC=C6C5(CCC(C6)OC7C(C(C(C(O7)CO)OC8C(C(C(C(O8)C)O)O)OC9C(C(C(C(O9)C)O)O)O)O)O)C)C)C)OC1

>  <PUBCHEM_OPENEYE_CAN_SMILES>
CC1CCC2(C(C3C(O2)CC4C3(CCC5C4CC=C6C5(CCC(C6)OC7C(C(C(C(O7)CO)OC8C(C(C(C(O8)C)O)O)OC9C(C(C(C(O9)C)O)O)O)O)O)C)C)C)OC1

>  <PUBCHEM_OPENEYE_ISO_SMILES>
CC1CCC2(C(C3C(O2)CC4C3(CCC5C4CC=C6C5(CCC(C6)OC7C(C(C(C(O7)CO)OC8C(C(C(C(O8)C)O)O)OC9C(C(C(C(O9)C)O)O)O)O)O)C)C)C)OC1

>  <PUBCHEM_CACTVS_TPSA>
236

>  <PUBCHEM_MONOISOTOPIC_WEIGHT>
868.48203620

>  <PUBCHEM_TOTAL_CHARGE>
0

>  <PUBCHEM_HEAVY_ATOM_COUNT>
61

>  <PUBCHEM_ATOM_DEF_STEREO_COUNT>
0

>  <PUBCHEM_ATOM_UDEF_STEREO_COUNT>
26

>  <PUBCHEM_BOND_DEF_STEREO_COUNT>
0

>  <PUBCHEM_BOND_UDEF_STEREO_COUNT>
0

>  <PUBCHEM_ISOTOPIC_ATOM_COUNT>
0

>  <PUBCHEM_COMPONENT_COUNT>
1

>  <PUBCHEM_CACTVS_TAUTO_COUNT>
-1

>  <PUBCHEM_COORDINATE_TYPE>
1
5
255

>  <PUBCHEM_BONDANNOTATIONS>
51  10  3
55  10  3
52  11  3
54  12  3
57  14  3
58  15  3
60  16  3
17  29  3
18  23  3
19  25  3
20  30  3
21  23  3
22  26  3
25  33  3
27  36  3
28  34  3
39  3  3
44  3  3
41  43  3
47  49  3
45  5  3
53  56  3
59  61  3
46  6  3
48  7  3
50  7  3

$$$$
