74976872
 OpenBabel06082519392D

 94 99  0  0  1  0  0  0  0  0999 V2000
    6.3301   -3.6383    0.0000 O   0  0  0  0  0  0  0  0  0  0  0  0
    4.5981   -1.6383    0.0000 O   0  0  0  0  0  0  0  0  0  0  0  0
    7.1961   -2.1383    0.0000 O   0  0  0  0  0  0  0  0  0  0  0  0
    6.3301   -1.6383    0.0000 O   0  0  0  0  0  0  0  0  0  0  0  0
    4.5981   -4.6383    0.0000 O   0  0  0  0  0  0  0  0  0  0  0  0
    2.8660   -3.6383    0.0000 O   0  0  0  0  0  0  0  0  0  0  0  0
    8.0622   -4.6383    0.0000 O   0  0  0  0  0  0  0  0  0  0  0  0
    9.7942   -3.6383    0.0000 O   0  0  0  0  0  0  0  0  0  0  0  0
    9.7942   -1.6383    0.0000 O   0  0  0  0  0  0  0  0  0  0  0  0
    9.8496    2.3485    0.0000 O   0  0  0  0  0  0  0  0  0  0  0  0
    2.8660   -0.6383    0.0000 O   0  0  0  0  0  0  0  0  0  0  0  0
    8.9663    0.8586    0.0000 O   0  0  0  0  0  0  0  0  0  0  0  0
    8.9282   -0.1383    0.0000 O   0  0  0  0  0  0  0  0  0  0  0  0
   12.4302    0.8185    0.0000 O   0  0  0  0  0  0  0  0  0  0  0  0
   12.4533    2.8184    0.0000 O   0  0  0  0  0  0  0  0  0  0  0  0
   10.6867   -0.1614    0.0000 O   0  0  0  0  0  0  0  0  0  0  0  0
    5.4641    0.8617    0.0000 O   0  3  0  0  0  0  0  0  0  0  0  0
   11.6047    4.3283    0.0000 O   0  0  0  0  0  0  0  0  0  0  0  0
    7.2082    3.9310    0.0000 O   0  0  0  0  0  0  0  0  0  0  0  0
    2.0000    1.8618    0.0000 O   0  0  0  0  0  0  0  0  0  0  0  0
    5.4641   -3.1383    0.0000 C   0  0  3  0  0  0  0  0  0  0  0  0
    4.5981   -3.6383    0.0000 C   0  0  3  0  0  0  0  0  0  0  0  0
    3.7320   -3.1383    0.0000 C   0  0  3  0  0  0  0  0  0  0  0  0
    7.1961   -3.1383    0.0000 C   0  0  3  0  0  0  0  0  0  0  0  0
    5.4641   -2.1383    0.0000 C   0  0  3  0  0  0  0  0  0  0  0  0
    8.0622   -3.6383    0.0000 C   0  0  3  0  0  0  0  0  0  0  0  0
    3.7320   -2.1383    0.0000 C   0  0  3  0  0  0  0  0  0  0  0  0
    8.9282   -3.1383    0.0000 C   0  0  3  0  0  0  0  0  0  0  0  0
    8.9282   -2.1383    0.0000 C   0  0  3  0  0  0  0  0  0  0  0  0
    8.0622   -1.6383    0.0000 C   0  0  3  0  0  0  0  0  0  0  0  0
    2.8660   -1.6383    0.0000 C   0  0  0  0  0  0  0  0  0  0  0  0
    8.0622   -0.6383    0.0000 C   0  0  0  0  0  0  0  0  0  0  0  0
   11.5700    1.3285    0.0000 C   0  0  3  0  0  0  0  0  0  0  0  0
   11.5816    2.3284    0.0000 C   0  0  3  0  0  0  0  0  0  0  0  0
   10.6983    0.8386    0.0000 C   0  0  3  0  0  0  0  0  0  0  0  0
   10.7214    2.8384    0.0000 C   0  0  3  0  0  0  0  0  0  0  0  0
    9.8381    1.3485    0.0000 C   0  0  3  0  0  0  0  0  0  0  0  0
    6.3301   -0.6383    0.0000 C   0  0  0  0  0  0  0  0  0  0  0  0
   10.7329    3.8384    0.0000 C   0  0  0  0  0  0  0  0  0  0  0  0
    7.1961   -0.1383    0.0000 C   0  0  0  0  0  0  0  0  0  0  0  0
    7.1961    0.8617    0.0000 C   0  0  0  0  0  0  0  0  0  0  0  0
    5.4641   -0.1383    0.0000 C   0  0  0  0  0  0  0  0  0  0  0  0
    8.1061    1.3686    0.0000 C   0  0  0  0  0  0  0  0  0  0  0  0
    6.3301    1.3617    0.0000 C   0  0  0  0  0  0  0  0  0  0  0  0
    4.5981    0.3618    0.0000 C   0  0  0  0  0  0  0  0  0  0  0  0
    8.1142    2.4102    0.0000 C   0  0  0  0  0  0  0  0  0  0  0  0
    6.3140    2.4032    0.0000 C   0  0  0  0  0  0  0  0  0  0  0  0
    7.2121    2.9310    0.0000 C   0  0  0  0  0  0  0  0  0  0  0  0
    4.5981    1.3618    0.0000 C   0  0  0  0  0  0  0  0  0  0  0  0
    3.7320   -0.1383    0.0000 C   0  0  0  0  0  0  0  0  0  0  0  0
    3.7321    1.8618    0.0000 C   0  0  0  0  0  0  0  0  0  0  0  0
    2.8660    0.3617    0.0000 C   0  0  0  0  0  0  0  0  0  0  0  0
    2.8660    1.3618    0.0000 C   0  0  0  0  0  0  0  0  0  0  0  0
    5.4641   -3.7583    0.0000 H   0  0  0  0  0  0  0  0  0  0  0  0
    4.0611   -3.9483    0.0000 H   0  0  0  0  0  0  0  0  0  0  0  0
    3.1951   -2.8283    0.0000 H   0  0  0  0  0  0  0  0  0  0  0  0
    7.1961   -3.7583    0.0000 H   0  0  0  0  0  0  0  0  0  0  0  0
    5.4641   -1.5183    0.0000 H   0  0  0  0  0  0  0  0  0  0  0  0
    8.5991   -3.9483    0.0000 H   0  0  0  0  0  0  0  0  0  0  0  0
    3.7320   -1.5183    0.0000 H   0  0  0  0  0  0  0  0  0  0  0  0
    9.4651   -2.8283    0.0000 H   0  0  0  0  0  0  0  0  0  0  0  0
    9.4651   -2.4483    0.0000 H   0  0  0  0  0  0  0  0  0  0  0  0
    7.5252   -1.3283    0.0000 H   0  0  0  0  0  0  0  0  0  0  0  0
    2.2554   -1.5306    0.0000 H   0  0  0  0  0  0  0  0  0  0  0  0
    2.6540   -2.2209    0.0000 H   0  0  0  0  0  0  0  0  0  0  0  0
    7.8501   -0.0557    0.0000 H   0  0  0  0  0  0  0  0  0  0  0  0
    7.4516   -0.7459    0.0000 H   0  0  0  0  0  0  0  0  0  0  0  0
   11.5628    0.7086    0.0000 H   0  0  0  0  0  0  0  0  0  0  0  0
   12.1149    2.0123    0.0000 H   0  0  0  0  0  0  0  0  0  0  0  0
    4.0611   -4.9483    0.0000 H   0  0  0  0  0  0  0  0  0  0  0  0
   11.2316    0.5224    0.0000 H   0  0  0  0  0  0  0  0  0  0  0  0
   10.1881    3.1546    0.0000 H   0  0  0  0  0  0  0  0  0  0  0  0
    2.8660   -4.2583    0.0000 H   0  0  0  0  0  0  0  0  0  0  0  0
    9.8309    0.7286    0.0000 H   0  0  0  0  0  0  0  0  0  0  0  0
    8.5991   -4.9483    0.0000 H   0  0  0  0  0  0  0  0  0  0  0  0
    9.7942   -4.2583    0.0000 H   0  0  0  0  0  0  0  0  0  0  0  0
   10.3311   -1.9483    0.0000 H   0  0  0  0  0  0  0  0  0  0  0  0
   10.5276    4.4234    0.0000 H   0  0  0  0  0  0  0  0  0  0  0  0
   10.1212    3.7378    0.0000 H   0  0  0  0  0  0  0  0  0  0  0  0
    2.3291   -0.3283    0.0000 H   0  0  0  0  0  0  0  0  0  0  0  0
    7.7331   -0.4483    0.0000 H   0  0  0  0  0  0  0  0  0  0  0  0
    9.4651   -0.4483    0.0000 H   0  0  0  0  0  0  0  0  0  0  0  0
   12.9707    1.1223    0.0000 H   0  0  0  0  0  0  0  0  0  0  0  0
   12.9866    2.5022    0.0000 H   0  0  0  0  0  0  0  0  0  0  0  0
   11.2200   -0.4776    0.0000 H   0  0  0  0  0  0  0  0  0  0  0  0
    8.6523    2.7181    0.0000 H   0  0  0  0  0  0  0  0  0  0  0  0
    5.7736    2.7070    0.0000 H   0  0  0  0  0  0  0  0  0  0  0  0
   11.6119    4.9483    0.0000 H   0  0  0  0  0  0  0  0  0  0  0  0
    5.1351    1.6718    0.0000 H   0  0  0  0  0  0  0  0  0  0  0  0
    3.7320   -0.7583    0.0000 H   0  0  0  0  0  0  0  0  0  0  0  0
    3.7321    2.4818    0.0000 H   0  0  0  0  0  0  0  0  0  0  0  0
    2.3291    0.0517    0.0000 H   0  0  0  0  0  0  0  0  0  0  0  0
    6.6701    4.2389    0.0000 H   0  0  0  0  0  0  0  0  0  0  0  0
    2.0000    2.4818    0.0000 H   0  0  0  0  0  0  0  0  0  0  0  0
  1 21  1  0  0  0  0
  1 24  1  0  0  0  0
  2 25  1  0  0  0  0
  2 27  1  0  0  0  0
  3 24  1  0  0  0  0
  3 30  1  0  0  0  0
  4 25  1  0  0  0  0
  4 38  1  0  0  0  0
  5 22  1  0  0  0  0
  5 70  1  0  0  0  0
  6 23  1  0  0  0  0
  6 73  1  0  0  0  0
  7 26  1  0  0  0  0
  7 75  1  0  0  0  0
  8 28  1  0  0  0  0
  8 76  1  0  0  0  0
  9 29  1  0  0  0  0
  9 77  1  0  0  0  0
 10 36  1  0  0  0  0
 10 37  1  0  0  0  0
 11 31  1  0  0  0  0
 11 80  1  0  0  0  0
 12 37  1  0  0  0  0
 12 43  1  0  0  0  0
 13 32  1  0  0  0  0
 13 82  1  0  0  0  0
 14 33  1  0  0  0  0
 14 83  1  0  0  0  0
 15 34  1  0  0  0  0
 15 84  1  0  0  0  0
 16 35  1  0  0  0  0
 16 85  1  0  0  0  0
 17 42  1  0  0  0  0
 17 44  2  0  0  0  0
 18 39  1  0  0  0  0
 18 88  1  0  0  0  0
 19 48  1  0  0  0  0
 19 93  1  0  0  0  0
 20 53  1  0  0  0  0
 20 94  1  0  0  0  0
 21 22  1  0  0  0  0
 21 25  1  0  0  0  0
 21 54  1  0  0  0  0
 22 23  1  0  0  0  0
 22 55  1  0  0  0  0
 23 27  1  0  0  0  0
 23 56  1  0  0  0  0
 24 26  1  0  0  0  0
 24 57  1  0  0  0  0
 25 58  1  0  0  0  0
 26 28  1  0  0  0  0
 26 59  1  0  0  0  0
 27 31  1  0  0  0  0
 27 60  1  0  0  0  0
 28 29  1  0  0  0  0
 28 61  1  0  0  0  0
 29 30  1  0  0  0  0
 29 62  1  0  0  0  0
 30 32  1  0  0  0  0
 30 63  1  0  0  0  0
 31 64  1  0  0  0  0
 31 65  1  0  0  0  0
 32 66  1  0  0  0  0
 32 67  1  0  0  0  0
 33 34  1  0  0  0  0
 33 35  1  0  0  0  0
 33 68  1  0  0  0  0
 34 36  1  0  0  0  0
 34 69  1  0  0  0  0
 35 37  1  0  0  0  0
 35 71  1  0  0  0  0
 36 39  1  0  0  0  0
 36 72  1  0  0  0  0
 37 74  1  0  0  0  0
 38 40  1  0  0  0  0
 38 42  2  0  0  0  0
 39 78  1  0  0  0  0
 39 79  1  0  0  0  0
 40 41  2  0  0  0  0
 40 81  1  0  0  0  0
 41 43  1  0  0  0  0
 41 44  1  0  0  0  0
 42 45  1  0  0  0  0
 43 46  2  0  0  0  0
 44 47  1  0  0  0  0
 45 49  2  0  0  0  0
 45 50  1  0  0  0  0
 46 48  1  0  0  0  0
 46 86  1  0  0  0  0
 47 48  2  0  0  0  0
 47 87  1  0  0  0  0
 49 51  1  0  0  0  0
 49 89  1  0  0  0  0
 50 52  2  0  0  0  0
 50 90  1  0  0  0  0
 51 53  2  0  0  0  0
 51 91  1  0  0  0  0
 52 53  1  0  0  0  0
 52 92  1  0  0  0  0
M  CHG  1  17   1
M  END
>  <PUBCHEM_COMPOUND_CID>
74976872

>  <PUBCHEM_COMPOUND_CANONICALIZED>
1

>  <PUBCHEM_CACTVS_COMPLEXITY>
1150

>  <PUBCHEM_CACTVS_HBOND_ACCEPTOR>
19

>  <PUBCHEM_CACTVS_HBOND_DONOR>
13

>  <PUBCHEM_CACTVS_ROTATABLE_BOND>
10

>  <PUBCHEM_CACTVS_SUBSKEYS>
AAADcfB8PgAAAAAAAAAAAAAAAAAAAAAAAAA0aJEiAAAAAACR9AAAGgAACAAADBSwmAMwDsAABkCIAqBSAAICCAAkIAAIiAFGiMgdNzaGNR6ieWKl4BUPuYfK7OzOIAAACAAIAABAAAAQABAAAAAAAAAAAA==

>  <PUBCHEM_IUPAC_OPENEYE_NAME>
2-[4,5-dihydroxy-2-[7-hydroxy-2-(4-hydroxyphenyl)-5-[3,4,5-trihydroxy-6-(hydroxymethyl)tetrahydropyran-2-yl]oxy-chromenylium-3-yl]oxy-6-(hydroxymethyl)tetrahydropyran-3-yl]oxy-6-(hydroxymethyl)tetrahydropyran-3,4,5-triol

>  <PUBCHEM_IUPAC_CAS_NAME>
2-[[4,5-dihydroxy-2-[[7-hydroxy-2-(4-hydroxyphenyl)-5-[[3,4,5-trihydroxy-6-(hydroxymethyl)-2-oxanyl]oxy]-1-benzopyrylium-3-yl]oxy]-6-(hydroxymethyl)-3-oxanyl]oxy]-6-(hydroxymethyl)oxane-3,4,5-triol

>  <PUBCHEM_IUPAC_NAME_MARKUP>
2-[4,5-dihydroxy-2-[7-hydroxy-2-(4-hydroxyphenyl)-5-[3,4,5-trihydroxy-6-(hydroxymethyl)oxan-2-yl]oxychromenylium-3-yl]oxy-6-(hydroxymethyl)oxan-3-yl]oxy-6-(hydroxymethyl)oxane-3,4,5-triol

>  <PUBCHEM_IUPAC_NAME>
2-[4,5-dihydroxy-2-[7-hydroxy-2-(4-hydroxyphenyl)-5-[3,4,5-trihydroxy-6-(hydroxymethyl)oxan-2-yl]oxychromenylium-3-yl]oxy-6-(hydroxymethyl)oxan-3-yl]oxy-6-(hydroxymethyl)oxane-3,4,5-triol

>  <PUBCHEM_IUPAC_SYSTEMATIC_NAME>
2-(hydroxymethyl)-6-[6-(hydroxymethyl)-2-[5-[6-(hydroxymethyl)-3,4,5-tris(oxidanyl)oxan-2-yl]oxy-2-(4-hydroxyphenyl)-7-oxidanyl-chromenylium-3-yl]oxy-4,5-bis(oxidanyl)oxan-3-yl]oxy-oxane-3,4,5-triol

>  <PUBCHEM_IUPAC_TRADITIONAL_NAME>
2-[4,5-dihydroxy-2-[[7-hydroxy-2-(4-hydroxyphenyl)-5-(3,4,5-trihydroxy-6-methylol-tetrahydropyran-2-yl)oxy-1-benzopyrylium-3-yl]oxy]-6-methylol-tetrahydropyran-3-yl]oxy-6-methylol-tetrahydropyran-3,4,5-triol

>  <PUBCHEM_IUPAC_INCHI>
InChI=1S/C33H40O20/c34-8-18-21(39)24(42)27(45)31(50-18)48-16-6-13(38)5-15-14(16)7-17(29(47-15)11-1-3-12(37)4-2-11)49-33-30(26(44)23(41)20(10-36)52-33)53-32-28(46)25(43)22(40)19(9-35)51-32/h1-7,18-28,30-36,39-46H,8-10H2,(H-,37,38)/p+1

>  <PUBCHEM_IUPAC_INCHIKEY>
XPMFXZDODDEKIK-UHFFFAOYSA-O

>  <PUBCHEM_EXACT_MASS>
757.21911869

>  <PUBCHEM_MOLECULAR_FORMULA>
C33H41O20+

>  <PUBCHEM_MOLECULAR_WEIGHT>
757.7

>  <PUBCHEM_SMILES>
C1=CC(=CC=C1C2=C(C=C3C(=CC(=CC3=[O+]2)O)OC4C(C(C(C(O4)CO)O)O)O)OC5C(C(C(C(O5)CO)O)O)OC6C(C(C(C(O6)CO)O)O)O)O

>  <PUBCHEM_OPENEYE_CAN_SMILES>
C1=CC(=CC=C1C2=C(C=C3C(=CC(=CC3=[O+]2)O)OC4C(C(C(C(O4)CO)O)O)O)OC5C(C(C(C(O5)CO)O)O)OC6C(C(C(C(O6)CO)O)O)O)O

>  <PUBCHEM_OPENEYE_ISO_SMILES>
C1=CC(=CC=C1C2=C(C=C3C(=CC(=CC3=[O+]2)O)OC4C(C(C(C(O4)CO)O)O)O)OC5C(C(C(C(O5)CO)O)O)OC6C(C(C(C(O6)CO)O)O)O)O

>  <PUBCHEM_CACTVS_TPSA>
319

>  <PUBCHEM_MONOISOTOPIC_WEIGHT>
757.21911869

>  <PUBCHEM_TOTAL_CHARGE>
1

>  <PUBCHEM_HEAVY_ATOM_COUNT>
53

>  <PUBCHEM_ATOM_DEF_STEREO_COUNT>
0

>  <PUBCHEM_ATOM_UDEF_STEREO_COUNT>
15

>  <PUBCHEM_BOND_DEF_STEREO_COUNT>
0

>  <PUBCHEM_BOND_UDEF_STEREO_COUNT>
0

>  <PUBCHEM_ISOTOPIC_ATOM_COUNT>
0

>  <PUBCHEM_COMPONENT_COUNT>
1

>  <PUBCHEM_CACTVS_TAUTO_COUNT>
-1

>  <PUBCHEM_COORDINATE_TYPE>
1
5
255

>  <PUBCHEM_BONDANNOTATIONS>
21  1  3
24  1  3
37  12  3
33  14  3
34  15  3
35  16  3
17  42  8
17  44  8
27  31  3
30  32  3
36  39  3
38  40  8
38  42  8
25  4  3
40  41  8
41  43  8
41  44  8
43  46  8
44  47  8
45  49  8
45  50  8
46  48  8
47  48  8
49  51  8
22  5  3
50  52  8
51  53  8
52  53  8
23  6  3
26  7  3
28  8  3
29  9  3

$$$$
