74977494
 OpenBabel06082519392D

 92 97  0  0  1  0  0  0  0  0999 V2000
    7.7331    2.7144    0.0000 O   0  0  0  0  0  0  0  0  0  0  0  0
    6.8671   -1.7856    0.0000 O   0  0  0  0  0  0  0  0  0  0  0  0
    7.7331   -0.2856    0.0000 O   0  0  0  0  0  0  0  0  0  0  0  0
    6.0010   -4.2857    0.0000 O   0  0  0  0  0  0  0  0  0  0  0  0
    4.2690   -4.2857    0.0000 O   0  0  0  0  0  0  0  0  0  0  0  0
    8.5991    0.2144    0.0000 O   0  0  0  0  0  0  0  0  0  0  0  0
   10.3312    1.2144    0.0000 O   0  0  0  0  0  0  0  0  0  0  0  0
    7.7331   -4.2857    0.0000 O   0  0  0  0  0  0  0  0  0  0  0  0
    9.4651   -3.2856    0.0000 O   0  0  0  0  0  0  0  0  0  0  0  0
   10.3312    3.2144    0.0000 O   0  0  0  0  0  0  0  0  0  0  0  0
    9.4651   -1.2856    0.0000 O   0  0  0  0  0  0  0  0  0  0  0  0
    6.0010   -6.2857    0.0000 O   0  0  0  0  0  0  0  0  0  0  0  0
    4.2690   -7.2856    0.0000 O   0  0  0  0  0  0  0  0  0  0  0  0
    2.5369   -6.2857    0.0000 O   0  0  0  0  0  0  0  0  0  0  0  0
    6.0171    2.7559    0.0000 O   0  0  0  0  0  0  0  0  0  0  0  0
    9.4651    4.7143    0.0000 O   0  0  0  0  0  0  0  0  0  0  0  0
    4.2690   -0.2856    0.0000 O   0  0  0  0  0  0  0  0  0  0  0  0
    3.3648    1.2112    0.0000 O   0  0  0  0  0  0  0  0  0  0  0  0
    5.1345    7.2836    0.0000 O   0  0  0  0  0  0  0  0  0  0  0  0
    7.7331    1.7144    0.0000 C   0  0  3  0  0  0  0  0  0  0  0  0
    8.5991    1.2144    0.0000 C   0  0  3  0  0  0  0  0  0  0  0  0
    6.8671   -2.7856    0.0000 C   0  0  3  0  0  0  0  0  0  0  0  0
    9.4651    1.7144    0.0000 C   0  0  3  0  0  0  0  0  0  0  0  0
    7.7331   -3.2856    0.0000 C   0  0  3  0  0  0  0  0  0  0  0  0
    8.5991   -2.7856    0.0000 C   0  0  3  0  0  0  0  0  0  0  0  0
    9.4651    2.7144    0.0000 C   0  0  3  0  0  0  0  0  0  0  0  0
    8.5991   -1.7856    0.0000 C   0  0  3  0  0  0  0  0  0  0  0  0
    8.5991    3.2144    0.0000 C   0  0  3  0  0  0  0  0  0  0  0  0
    7.7331   -1.2856    0.0000 C   0  0  3  0  0  0  0  0  0  0  0  0
    6.8671    1.2144    0.0000 C   0  0  0  0  0  0  0  0  0  0  0  0
    6.0010   -3.2856    0.0000 C   0  0  0  0  0  0  0  0  0  0  0  0
    5.1350   -4.7857    0.0000 C   0  0  3  0  0  0  0  0  0  0  0  0
    5.1350   -5.7857    0.0000 C   0  0  3  0  0  0  0  0  0  0  0  0
    4.2690   -6.2857    0.0000 C   0  0  3  0  0  0  0  0  0  0  0  0
    3.4030   -5.7857    0.0000 C   0  0  3  0  0  0  0  0  0  0  0  0
    3.4030   -4.7857    0.0000 C   0  0  3  0  0  0  0  0  0  0  0  0
    6.8671    0.2144    0.0000 C   0  0  0  0  0  0  0  0  0  0  0  0
    8.5991    4.2143    0.0000 C   0  0  0  0  0  0  0  0  0  0  0  0
    6.0010    1.7144    0.0000 C   0  0  0  0  0  0  0  0  0  0  0  0
    6.0010   -0.2856    0.0000 C   0  0  0  0  0  0  0  0  0  0  0  0
    5.1350    1.2144    0.0000 C   0  0  0  0  0  0  0  0  0  0  0  0
    2.5369   -4.2857    0.0000 C   0  0  0  0  0  0  0  0  0  0  0  0
    5.1350    0.2144    0.0000 C   0  0  0  0  0  0  0  0  0  0  0  0
    4.2250    1.7212    0.0000 C   0  0  0  0  0  0  0  0  0  0  0  0
    5.1191    3.2836    0.0000 C   0  0  0  0  0  0  0  0  0  0  0  0
    4.2170    2.7628    0.0000 C   0  0  0  0  0  0  0  0  0  0  0  0
    5.1229    4.2836    0.0000 C   0  0  0  0  0  0  0  0  0  0  0  0
    4.2588    4.7869    0.0000 C   0  0  0  0  0  0  0  0  0  0  0  0
    5.9909    4.7803    0.0000 C   0  0  0  0  0  0  0  0  0  0  0  0
    4.2627    5.7869    0.0000 C   0  0  0  0  0  0  0  0  0  0  0  0
    5.9947    5.7802    0.0000 C   0  0  0  0  0  0  0  0  0  0  0  0
    5.1306    6.2836    0.0000 C   0  0  0  0  0  0  0  0  0  0  0  0
    7.1962    2.0244    0.0000 H   0  0  0  0  0  0  0  0  0  0  0  0
    8.0622    0.9044    0.0000 H   0  0  0  0  0  0  0  0  0  0  0  0
    6.3301   -2.4756    0.0000 H   0  0  0  0  0  0  0  0  0  0  0  0
    9.4651    1.0944    0.0000 H   0  0  0  0  0  0  0  0  0  0  0  0
    8.2700   -3.5956    0.0000 H   0  0  0  0  0  0  0  0  0  0  0  0
    9.1360   -2.4756    0.0000 H   0  0  0  0  0  0  0  0  0  0  0  0
   10.0021    2.4044    0.0000 H   0  0  0  0  0  0  0  0  0  0  0  0
    8.5991   -1.1656    0.0000 H   0  0  0  0  0  0  0  0  0  0  0  0
    8.0622    3.5244    0.0000 H   0  0  0  0  0  0  0  0  0  0  0  0
    7.1962   -0.9756    0.0000 H   0  0  0  0  0  0  0  0  0  0  0  0
    5.7890   -2.7030    0.0000 H   0  0  0  0  0  0  0  0  0  0  0  0
    5.3905   -3.3933    0.0000 H   0  0  0  0  0  0  0  0  0  0  0  0
    5.1350   -4.1656    0.0000 H   0  0  0  0  0  0  0  0  0  0  0  0
    5.1350   -6.4056    0.0000 H   0  0  0  0  0  0  0  0  0  0  0  0
    3.7320   -6.5956    0.0000 H   0  0  0  0  0  0  0  0  0  0  0  0
    3.4030   -6.4056    0.0000 H   0  0  0  0  0  0  0  0  0  0  0  0
    3.4030   -4.1656    0.0000 H   0  0  0  0  0  0  0  0  0  0  0  0
    8.3871    4.7970    0.0000 H   0  0  0  0  0  0  0  0  0  0  0  0
    7.9885    4.1067    0.0000 H   0  0  0  0  0  0  0  0  0  0  0  0
    9.1360   -0.0956    0.0000 H   0  0  0  0  0  0  0  0  0  0  0  0
   10.8681    1.5244    0.0000 H   0  0  0  0  0  0  0  0  0  0  0  0
    8.2700   -4.5956    0.0000 H   0  0  0  0  0  0  0  0  0  0  0  0
    6.0010   -0.9056    0.0000 H   0  0  0  0  0  0  0  0  0  0  0  0
   10.0021   -2.9756    0.0000 H   0  0  0  0  0  0  0  0  0  0  0  0
   10.8681    2.9044    0.0000 H   0  0  0  0  0  0  0  0  0  0  0  0
    2.8469   -3.7487    0.0000 H   0  0  0  0  0  0  0  0  0  0  0  0
    2.0000   -3.9756    0.0000 H   0  0  0  0  0  0  0  0  0  0  0  0
    2.2269   -4.8226    0.0000 H   0  0  0  0  0  0  0  0  0  0  0  0
    9.4651   -0.6656    0.0000 H   0  0  0  0  0  0  0  0  0  0  0  0
    6.5380   -5.9756    0.0000 H   0  0  0  0  0  0  0  0  0  0  0  0
    3.7320   -7.5956    0.0000 H   0  0  0  0  0  0  0  0  0  0  0  0
    2.0000   -5.9756    0.0000 H   0  0  0  0  0  0  0  0  0  0  0  0
    9.4651    5.3344    0.0000 H   0  0  0  0  0  0  0  0  0  0  0  0
    3.6788    3.0707    0.0000 H   0  0  0  0  0  0  0  0  0  0  0  0
    4.2690   -0.9056    0.0000 H   0  0  0  0  0  0  0  0  0  0  0  0
    3.7207    4.4790    0.0000 H   0  0  0  0  0  0  0  0  0  0  0  0
    6.5266    4.4682    0.0000 H   0  0  0  0  0  0  0  0  0  0  0  0
    3.7269    6.0990    0.0000 H   0  0  0  0  0  0  0  0  0  0  0  0
    6.5328    6.0882    0.0000 H   0  0  0  0  0  0  0  0  0  0  0  0
    4.5987    7.5956    0.0000 H   0  0  0  0  0  0  0  0  0  0  0  0
  1 20  1  0  0  0  0
  1 28  1  0  0  0  0
  2 22  1  0  0  0  0
  2 29  1  0  0  0  0
  3 29  1  0  0  0  0
  3 37  1  0  0  0  0
  4 31  1  0  0  0  0
  4 32  1  0  0  0  0
  5 32  1  0  0  0  0
  5 36  1  0  0  0  0
  6 21  1  0  0  0  0
  6 72  1  0  0  0  0
  7 23  1  0  0  0  0
  7 73  1  0  0  0  0
  8 24  1  0  0  0  0
  8 74  1  0  0  0  0
  9 25  1  0  0  0  0
  9 76  1  0  0  0  0
 10 26  1  0  0  0  0
 10 77  1  0  0  0  0
 11 27  1  0  0  0  0
 11 81  1  0  0  0  0
 12 33  1  0  0  0  0
 12 82  1  0  0  0  0
 13 34  1  0  0  0  0
 13 83  1  0  0  0  0
 14 35  1  0  0  0  0
 14 84  1  0  0  0  0
 15 39  1  0  0  0  0
 15 45  1  0  0  0  0
 16 38  1  0  0  0  0
 16 85  1  0  0  0  0
 17 43  1  0  0  0  0
 17 87  1  0  0  0  0
 18 44  2  0  0  0  0
 19 52  1  0  0  0  0
 19 92  1  0  0  0  0
 20 21  1  0  0  0  0
 20 30  1  0  0  0  0
 20 53  1  0  0  0  0
 21 23  1  0  0  0  0
 21 54  1  0  0  0  0
 22 24  1  0  0  0  0
 22 31  1  0  0  0  0
 22 55  1  0  0  0  0
 23 26  1  0  0  0  0
 23 56  1  0  0  0  0
 24 25  1  0  0  0  0
 24 57  1  0  0  0  0
 25 27  1  0  0  0  0
 25 58  1  0  0  0  0
 26 28  1  0  0  0  0
 26 59  1  0  0  0  0
 27 29  1  0  0  0  0
 27 60  1  0  0  0  0
 28 38  1  0  0  0  0
 28 61  1  0  0  0  0
 29 62  1  0  0  0  0
 30 37  2  0  0  0  0
 30 39  1  0  0  0  0
 31 63  1  0  0  0  0
 31 64  1  0  0  0  0
 32 33  1  0  0  0  0
 32 65  1  0  0  0  0
 33 34  1  0  0  0  0
 33 66  1  0  0  0  0
 34 35  1  0  0  0  0
 34 67  1  0  0  0  0
 35 36  1  0  0  0  0
 35 68  1  0  0  0  0
 36 42  1  0  0  0  0
 36 69  1  0  0  0  0
 37 40  1  0  0  0  0
 38 70  1  0  0  0  0
 38 71  1  0  0  0  0
 39 41  2  0  0  0  0
 40 43  2  0  0  0  0
 40 75  1  0  0  0  0
 41 43  1  0  0  0  0
 41 44  1  0  0  0  0
 42 78  1  0  0  0  0
 42 79  1  0  0  0  0
 42 80  1  0  0  0  0
 44 46  1  0  0  0  0
 45 46  2  0  0  0  0
 45 47  1  0  0  0  0
 46 86  1  0  0  0  0
 47 48  2  0  0  0  0
 47 49  1  0  0  0  0
 48 50  1  0  0  0  0
 48 88  1  0  0  0  0
 49 51  2  0  0  0  0
 49 89  1  0  0  0  0
 50 52  2  0  0  0  0
 50 90  1  0  0  0  0
 51 52  1  0  0  0  0
 51 91  1  0  0  0  0
M  END
>  <PUBCHEM_COMPOUND_CID>
74977494

>  <PUBCHEM_COMPOUND_CANONICALIZED>
1

>  <PUBCHEM_CACTVS_COMPLEXITY>
1250

>  <PUBCHEM_CACTVS_HBOND_ACCEPTOR>
19

>  <PUBCHEM_CACTVS_HBOND_DONOR>
12

>  <PUBCHEM_CACTVS_ROTATABLE_BOND>
8

>  <PUBCHEM_CACTVS_SUBSKEYS>
AAADcfB8PgAAAAAAAAAAAAAAAAAAAAAAAAA0aJECAAAAAACBQAAAGgAACAAADBSwmAMyDoAABgCIAqBSAAACCAAkIAAIiAEGCMgdNzaGNRqieWCl4BUPuQfI7PzOIAACCAAIAABAAAQQABAAAAAAAAAAAA==

>  <PUBCHEM_IUPAC_OPENEYE_NAME>
5-hydroxy-2-(4-hydroxyphenyl)-8-[3,4,5-trihydroxy-6-(hydroxymethyl)tetrahydropyran-2-yl]-7-[3,4,5-trihydroxy-6-[(3,4,5-trihydroxy-6-methyl-tetrahydropyran-2-yl)oxymethyl]tetrahydropyran-2-yl]oxy-chromen-4-one

>  <PUBCHEM_IUPAC_CAS_NAME>
5-hydroxy-2-(4-hydroxyphenyl)-8-[3,4,5-trihydroxy-6-(hydroxymethyl)-2-oxanyl]-7-[[3,4,5-trihydroxy-6-[(3,4,5-trihydroxy-6-methyl-2-oxanyl)oxymethyl]-2-oxanyl]oxy]-1-benzopyran-4-one

>  <PUBCHEM_IUPAC_NAME_MARKUP>
5-hydroxy-2-(4-hydroxyphenyl)-8-[3,4,5-trihydroxy-6-(hydroxymethyl)oxan-2-yl]-7-[3,4,5-trihydroxy-6-[(3,4,5-trihydroxy-6-methyloxan-2-yl)oxymethyl]oxan-2-yl]oxychromen-4-one

>  <PUBCHEM_IUPAC_NAME>
5-hydroxy-2-(4-hydroxyphenyl)-8-[3,4,5-trihydroxy-6-(hydroxymethyl)oxan-2-yl]-7-[3,4,5-trihydroxy-6-[(3,4,5-trihydroxy-6-methyloxan-2-yl)oxymethyl]oxan-2-yl]oxychromen-4-one

>  <PUBCHEM_IUPAC_SYSTEMATIC_NAME>
8-[6-(hydroxymethyl)-3,4,5-tris(oxidanyl)oxan-2-yl]-2-(4-hydroxyphenyl)-7-[6-[[6-methyl-3,4,5-tris(oxidanyl)oxan-2-yl]oxymethyl]-3,4,5-tris(oxidanyl)oxan-2-yl]oxy-5-oxidanyl-chromen-4-one

>  <PUBCHEM_IUPAC_TRADITIONAL_NAME>
5-hydroxy-2-(4-hydroxyphenyl)-8-(3,4,5-trihydroxy-6-methylol-tetrahydropyran-2-yl)-7-[3,4,5-trihydroxy-6-[(3,4,5-trihydroxy-6-methyl-tetrahydropyran-2-yl)oxymethyl]tetrahydropyran-2-yl]oxy-chromone

>  <PUBCHEM_IUPAC_INCHI>
InChI=1S/C33H40O19/c1-10-21(38)24(41)28(45)32(48-10)47-9-18-23(40)26(43)29(46)33(52-18)51-16-7-14(37)19-13(36)6-15(11-2-4-12(35)5-3-11)49-30(19)20(16)31-27(44)25(42)22(39)17(8-34)50-31/h2-7,10,17-18,21-29,31-35,37-46H,8-9H2,1H3

>  <PUBCHEM_IUPAC_INCHIKEY>
HGBXMQQIDYBMQP-UHFFFAOYSA-N

>  <PUBCHEM_XLOGP3_AA>
-3.2

>  <PUBCHEM_EXACT_MASS>
740.21637904

>  <PUBCHEM_MOLECULAR_FORMULA>
C33H40O19

>  <PUBCHEM_MOLECULAR_WEIGHT>
740.7

>  <PUBCHEM_SMILES>
CC1C(C(C(C(O1)OCC2C(C(C(C(O2)OC3=C(C4=C(C(=C3)O)C(=O)C=C(O4)C5=CC=C(C=C5)O)C6C(C(C(C(O6)CO)O)O)O)O)O)O)O)O)O

>  <PUBCHEM_OPENEYE_CAN_SMILES>
CC1C(C(C(C(O1)OCC2C(C(C(C(O2)OC3=C(C4=C(C(=C3)O)C(=O)C=C(O4)C5=CC=C(C=C5)O)C6C(C(C(C(O6)CO)O)O)O)O)O)O)O)O)O

>  <PUBCHEM_OPENEYE_ISO_SMILES>
CC1C(C(C(C(O1)OCC2C(C(C(C(O2)OC3=C(C4=C(C(=C3)O)C(=O)C=C(O4)C5=CC=C(C=C5)O)C6C(C(C(C(O6)CO)O)O)O)O)O)O)O)O)O

>  <PUBCHEM_CACTVS_TPSA>
315

>  <PUBCHEM_MONOISOTOPIC_WEIGHT>
740.21637904

>  <PUBCHEM_TOTAL_CHARGE>
0

>  <PUBCHEM_HEAVY_ATOM_COUNT>
52

>  <PUBCHEM_ATOM_DEF_STEREO_COUNT>
0

>  <PUBCHEM_ATOM_UDEF_STEREO_COUNT>
15

>  <PUBCHEM_BOND_DEF_STEREO_COUNT>
0

>  <PUBCHEM_BOND_UDEF_STEREO_COUNT>
0

>  <PUBCHEM_ISOTOPIC_ATOM_COUNT>
0

>  <PUBCHEM_COMPONENT_COUNT>
1

>  <PUBCHEM_CACTVS_TAUTO_COUNT>
-1

>  <PUBCHEM_COORDINATE_TYPE>
1
5
255

>  <PUBCHEM_BONDANNOTATIONS>
26  10  3
27  11  3
33  12  3
34  13  3
35  14  3
15  39  8
15  45  8
20  30  3
22  31  3
28  38  3
29  3  3
30  37  8
30  39  8
36  42  3
37  40  8
39  41  8
32  4  3
40  43  8
41  43  8
41  44  8
44  46  8
45  46  8
47  48  8
47  49  8
48  50  8
49  51  8
50  52  8
51  52  8
21  6  3
23  7  3
24  8  3
25  9  3

$$$$
