74977089
 OpenBabel06082519392D

 78 82  0  0  1  0  0  0  0  0999 V2000
    6.8671   -0.3450    0.0000 O   0  0  0  0  0  0  0  0  0  0  0  0
    4.2690   -2.8450    0.0000 O   0  0  0  0  0  0  0  0  0  0  0  0
    6.0010   -2.8450    0.0000 O   0  0  0  0  0  0  0  0  0  0  0  0
    7.7331   -2.8450    0.0000 O   0  0  0  0  0  0  0  0  0  0  0  0
    9.4651   -1.8450    0.0000 O   0  0  0  0  0  0  0  0  0  0  0  0
    7.7331    1.1550    0.0000 O   0  0  0  0  0  0  0  0  0  0  0  0
    6.0010   -4.8450    0.0000 O   0  0  0  0  0  0  0  0  0  0  0  0
    9.4651    0.1550    0.0000 O   0  0  0  0  0  0  0  0  0  0  0  0
    4.2690   -5.8450    0.0000 O   0  0  0  0  0  0  0  0  0  0  0  0
    2.5369   -4.8450    0.0000 O   0  0  0  0  0  0  0  0  0  0  0  0
    2.5369   -1.8450    0.0000 O   0  0  0  0  0  0  0  0  0  0  0  0
    6.0010    3.1550    0.0000 O   0  3  0  0  0  0  0  0  0  0  0  0
    4.2526    0.1204    0.0000 O   0  0  0  0  0  0  0  0  0  0  0  0
    2.4709    3.1792    0.0000 O   0  0  0  0  0  0  0  0  0  0  0  0
    8.5991    5.6550    0.0000 O   0  0  0  0  0  0  0  0  0  0  0  0
   10.3312    2.6550    0.0000 O   0  0  0  0  0  0  0  0  0  0  0  0
   10.3312    4.6550    0.0000 O   0  0  0  0  0  0  0  0  0  0  0  0
    6.8671   -1.3450    0.0000 C   0  0  3  0  0  0  0  0  0  0  0  0
    7.7331   -1.8450    0.0000 C   0  0  3  0  0  0  0  0  0  0  0  0
    8.5991   -1.3450    0.0000 C   0  0  3  0  0  0  0  0  0  0  0  0
    5.1350   -4.3450    0.0000 C   0  0  3  0  0  0  0  0  0  0  0  0
    8.5991   -0.3450    0.0000 C   0  0  3  0  0  0  0  0  0  0  0  0
    4.2690   -4.8450    0.0000 C   0  0  3  0  0  0  0  0  0  0  0  0
    5.1350   -3.3450    0.0000 C   0  0  3  0  0  0  0  0  0  0  0  0
    3.4030   -4.3450    0.0000 C   0  0  3  0  0  0  0  0  0  0  0  0
    3.4030   -3.3450    0.0000 C   0  0  3  0  0  0  0  0  0  0  0  0
    7.7331    0.1550    0.0000 C   0  0  3  0  0  0  0  0  0  0  0  0
    6.0010   -1.8450    0.0000 C   0  0  0  0  0  0  0  0  0  0  0  0
    2.5369   -2.8450    0.0000 C   0  0  0  0  0  0  0  0  0  0  0  0
    6.8671    1.6550    0.0000 C   0  0  0  0  0  0  0  0  0  0  0  0
    6.8671    2.6550    0.0000 C   0  0  0  0  0  0  0  0  0  0  0  0
    6.0010    1.1550    0.0000 C   0  0  0  0  0  0  0  0  0  0  0  0
    5.1350    1.6550    0.0000 C   0  0  0  0  0  0  0  0  0  0  0  0
    7.7331    3.1550    0.0000 C   0  0  0  0  0  0  0  0  0  0  0  0
    5.1350    2.6550    0.0000 C   0  0  0  0  0  0  0  0  0  0  0  0
    4.2411    1.1203    0.0000 C   0  0  0  0  0  0  0  0  0  0  0  0
    4.2411    3.1897    0.0000 C   0  0  0  0  0  0  0  0  0  0  0  0
    7.7331    4.1550    0.0000 C   0  0  0  0  0  0  0  0  0  0  0  0
    8.5991    2.6550    0.0000 C   0  0  0  0  0  0  0  0  0  0  0  0
    3.3350    1.6342    0.0000 C   0  0  0  0  0  0  0  0  0  0  0  0
    3.3350    2.6758    0.0000 C   0  0  0  0  0  0  0  0  0  0  0  0
    8.5991    4.6550    0.0000 C   0  0  0  0  0  0  0  0  0  0  0  0
    9.4651    3.1550    0.0000 C   0  0  0  0  0  0  0  0  0  0  0  0
    9.4651    4.1550    0.0000 C   0  0  0  0  0  0  0  0  0  0  0  0
    7.7331    6.1550    0.0000 C   0  0  0  0  0  0  0  0  0  0  0  0
    6.3301   -1.0350    0.0000 H   0  0  0  0  0  0  0  0  0  0  0  0
    8.2700   -2.1550    0.0000 H   0  0  0  0  0  0  0  0  0  0  0  0
    9.1360   -1.0350    0.0000 H   0  0  0  0  0  0  0  0  0  0  0  0
    5.6720   -4.0350    0.0000 H   0  0  0  0  0  0  0  0  0  0  0  0
    8.5991    0.2750    0.0000 H   0  0  0  0  0  0  0  0  0  0  0  0
    4.8059   -5.1550    0.0000 H   0  0  0  0  0  0  0  0  0  0  0  0
    5.1350   -2.7250    0.0000 H   0  0  0  0  0  0  0  0  0  0  0  0
    2.8660   -4.0350    0.0000 H   0  0  0  0  0  0  0  0  0  0  0  0
    3.4030   -2.7250    0.0000 H   0  0  0  0  0  0  0  0  0  0  0  0
    7.1962    0.4650    0.0000 H   0  0  0  0  0  0  0  0  0  0  0  0
    5.7890   -1.2624    0.0000 H   0  0  0  0  0  0  0  0  0  0  0  0
    5.3905   -1.9527    0.0000 H   0  0  0  0  0  0  0  0  0  0  0  0
    1.9264   -2.7373    0.0000 H   0  0  0  0  0  0  0  0  0  0  0  0
    2.3249   -3.4276    0.0000 H   0  0  0  0  0  0  0  0  0  0  0  0
    8.2700   -3.1550    0.0000 H   0  0  0  0  0  0  0  0  0  0  0  0
   10.0021   -1.5350    0.0000 H   0  0  0  0  0  0  0  0  0  0  0  0
    6.5380   -4.5350    0.0000 H   0  0  0  0  0  0  0  0  0  0  0  0
    9.4651    0.7750    0.0000 H   0  0  0  0  0  0  0  0  0  0  0  0
    3.7320   -6.1550    0.0000 H   0  0  0  0  0  0  0  0  0  0  0  0
    2.0000   -4.5350    0.0000 H   0  0  0  0  0  0  0  0  0  0  0  0
    2.0000   -1.5350    0.0000 H   0  0  0  0  0  0  0  0  0  0  0  0
    6.0010    0.5350    0.0000 H   0  0  0  0  0  0  0  0  0  0  0  0
    4.2482    3.8096    0.0000 H   0  0  0  0  0  0  0  0  0  0  0  0
    7.1962    4.4650    0.0000 H   0  0  0  0  0  0  0  0  0  0  0  0
    8.5991    2.0350    0.0000 H   0  0  0  0  0  0  0  0  0  0  0  0
    2.7993    1.3221    0.0000 H   0  0  0  0  0  0  0  0  0  0  0  0
    3.7193   -0.1958    0.0000 H   0  0  0  0  0  0  0  0  0  0  0  0
    2.4733    3.7992    0.0000 H   0  0  0  0  0  0  0  0  0  0  0  0
   10.8681    2.9650    0.0000 H   0  0  0  0  0  0  0  0  0  0  0  0
   10.3312    5.2750    0.0000 H   0  0  0  0  0  0  0  0  0  0  0  0
    8.0431    6.6919    0.0000 H   0  0  0  0  0  0  0  0  0  0  0  0
    7.1962    6.4650    0.0000 H   0  0  0  0  0  0  0  0  0  0  0  0
    7.4231    5.6181    0.0000 H   0  0  0  0  0  0  0  0  0  0  0  0
  1 18  1  0  0  0  0
  1 27  1  0  0  0  0
  2 24  1  0  0  0  0
  2 26  1  0  0  0  0
  3 24  1  0  0  0  0
  3 28  1  0  0  0  0
  4 19  1  0  0  0  0
  4 60  1  0  0  0  0
  5 20  1  0  0  0  0
  5 61  1  0  0  0  0
  6 27  1  0  0  0  0
  6 30  1  0  0  0  0
  7 21  1  0  0  0  0
  7 62  1  0  0  0  0
  8 22  1  0  0  0  0
  8 63  1  0  0  0  0
  9 23  1  0  0  0  0
  9 64  1  0  0  0  0
 10 25  1  0  0  0  0
 10 65  1  0  0  0  0
 11 29  1  0  0  0  0
 11 66  1  0  0  0  0
 12 31  2  0  0  0  0
 12 35  1  0  0  0  0
 13 36  1  0  0  0  0
 13 72  1  0  0  0  0
 14 41  1  0  0  0  0
 14 73  1  0  0  0  0
 15 42  1  0  0  0  0
 15 45  1  0  0  0  0
 16 43  1  0  0  0  0
 16 74  1  0  0  0  0
 17 44  1  0  0  0  0
 17 75  1  0  0  0  0
 18 19  1  0  0  0  0
 18 28  1  0  0  0  0
 18 46  1  0  0  0  0
 19 20  1  0  0  0  0
 19 47  1  0  0  0  0
 20 22  1  0  0  0  0
 20 48  1  0  0  0  0
 21 23  1  0  0  0  0
 21 24  1  0  0  0  0
 21 49  1  0  0  0  0
 22 27  1  0  0  0  0
 22 50  1  0  0  0  0
 23 25  1  0  0  0  0
 23 51  1  0  0  0  0
 24 52  1  0  0  0  0
 25 26  1  0  0  0  0
 25 53  1  0  0  0  0
 26 29  1  0  0  0  0
 26 54  1  0  0  0  0
 27 55  1  0  0  0  0
 28 56  1  0  0  0  0
 28 57  1  0  0  0  0
 29 58  1  0  0  0  0
 29 59  1  0  0  0  0
 30 31  1  0  0  0  0
 30 32  2  0  0  0  0
 31 34  1  0  0  0  0
 32 33  1  0  0  0  0
 32 67  1  0  0  0  0
 33 35  1  0  0  0  0
 33 36  2  0  0  0  0
 34 38  1  0  0  0  0
 34 39  2  0  0  0  0
 35 37  2  0  0  0  0
 36 40  1  0  0  0  0
 37 41  1  0  0  0  0
 37 68  1  0  0  0  0
 38 42  2  0  0  0  0
 38 69  1  0  0  0  0
 39 43  1  0  0  0  0
 39 70  1  0  0  0  0
 40 41  2  0  0  0  0
 40 71  1  0  0  0  0
 42 44  1  0  0  0  0
 43 44  2  0  0  0  0
 45 76  1  0  0  0  0
 45 77  1  0  0  0  0
 45 78  1  0  0  0  0
M  CHG  1  12   1
M  END
>  <PUBCHEM_COMPOUND_CID>
74977089

>  <PUBCHEM_COMPOUND_CANONICALIZED>
1

>  <PUBCHEM_CACTVS_COMPLEXITY>
947

>  <PUBCHEM_CACTVS_HBOND_ACCEPTOR>
16

>  <PUBCHEM_CACTVS_HBOND_DONOR>
11

>  <PUBCHEM_CACTVS_ROTATABLE_BOND>
8

>  <PUBCHEM_CACTVS_SUBSKEYS>
AAADcfB4PgAAAAAAAAAAAAAAAAAAAAAAAAA0aJECAAAAAACR9AAAGgAACAAADBSwmAMyDsAABkCIAqBSAAICCAAkIAAAiAFGiMgdNzaGNR6ieWOl4BUPuYfK7PzOIAABCAAIQABAAAIQABCAAAAAAAAAAA==

>  <PUBCHEM_IUPAC_OPENEYE_NAME>
2-[[6-[2-(3,4-dihydroxy-5-methoxy-phenyl)-5,7-dihydroxy-chromenylium-3-yl]oxy-3,4,5-trihydroxy-tetrahydropyran-2-yl]methoxy]-6-(hydroxymethyl)tetrahydropyran-3,4,5-triol

>  <PUBCHEM_IUPAC_CAS_NAME>
2-[[6-[[2-(3,4-dihydroxy-5-methoxyphenyl)-5,7-dihydroxy-1-benzopyrylium-3-yl]oxy]-3,4,5-trihydroxy-2-oxanyl]methoxy]-6-(hydroxymethyl)oxane-3,4,5-triol

>  <PUBCHEM_IUPAC_NAME_MARKUP>
2-[[6-[2-(3,4-dihydroxy-5-methoxyphenyl)-5,7-dihydroxychromenylium-3-yl]oxy-3,4,5-trihydroxyoxan-2-yl]methoxy]-6-(hydroxymethyl)oxane-3,4,5-triol

>  <PUBCHEM_IUPAC_NAME>
2-[[6-[2-(3,4-dihydroxy-5-methoxyphenyl)-5,7-dihydroxychromenylium-3-yl]oxy-3,4,5-trihydroxyoxan-2-yl]methoxy]-6-(hydroxymethyl)oxane-3,4,5-triol

>  <PUBCHEM_IUPAC_SYSTEMATIC_NAME>
2-(hydroxymethyl)-6-[[6-[2-[3-methoxy-4,5-bis(oxidanyl)phenyl]-5,7-bis(oxidanyl)chromenylium-3-yl]oxy-3,4,5-tris(oxidanyl)oxan-2-yl]methoxy]oxane-3,4,5-triol

>  <PUBCHEM_IUPAC_TRADITIONAL_NAME>
2-[[6-[[2-(3,4-dihydroxy-5-methoxy-phenyl)-5,7-dihydroxy-1-benzopyrylium-3-yl]oxy]-3,4,5-trihydroxy-tetrahydropyran-2-yl]methoxy]-6-methylol-tetrahydropyran-3,4,5-triol

>  <PUBCHEM_IUPAC_INCHI>
InChI=1S/C28H32O17/c1-40-15-3-9(2-13(32)19(15)33)26-16(6-11-12(31)4-10(30)5-14(11)42-26)43-28-25(39)23(37)21(35)18(45-28)8-41-27-24(38)22(36)20(34)17(7-29)44-27/h2-6,17-18,20-25,27-29,34-39H,7-8H2,1H3,(H3-,30,31,32,33)/p+1

>  <PUBCHEM_IUPAC_INCHIKEY>
DBJVUXSMCARDEQ-UHFFFAOYSA-O

>  <PUBCHEM_EXACT_MASS>
641.17177458

>  <PUBCHEM_MOLECULAR_FORMULA>
C28H33O17+

>  <PUBCHEM_MOLECULAR_WEIGHT>
641.5

>  <PUBCHEM_SMILES>
COC1=CC(=CC(=C1O)O)C2=[O+]C3=CC(=CC(=C3C=C2OC4C(C(C(C(O4)COC5C(C(C(C(O5)CO)O)O)O)O)O)O)O)O

>  <PUBCHEM_OPENEYE_CAN_SMILES>
COC1=CC(=CC(=C1O)O)C2=[O+]C3=CC(=CC(=C3C=C2OC4C(C(C(C(O4)COC5C(C(C(C(O5)CO)O)O)O)O)O)O)O)O

>  <PUBCHEM_OPENEYE_ISO_SMILES>
COC1=CC(=CC(=C1O)O)C2=[O+]C3=CC(=CC(=C3C=C2OC4C(C(C(C(O4)COC5C(C(C(C(O5)CO)O)O)O)O)O)O)O)O

>  <PUBCHEM_CACTVS_TPSA>
270

>  <PUBCHEM_MONOISOTOPIC_WEIGHT>
641.17177458

>  <PUBCHEM_TOTAL_CHARGE>
1

>  <PUBCHEM_HEAVY_ATOM_COUNT>
45

>  <PUBCHEM_ATOM_DEF_STEREO_COUNT>
0

>  <PUBCHEM_ATOM_UDEF_STEREO_COUNT>
10

>  <PUBCHEM_BOND_DEF_STEREO_COUNT>
0

>  <PUBCHEM_BOND_UDEF_STEREO_COUNT>
0

>  <PUBCHEM_ISOTOPIC_ATOM_COUNT>
0

>  <PUBCHEM_COMPONENT_COUNT>
1

>  <PUBCHEM_CACTVS_TAUTO_COUNT>
-1

>  <PUBCHEM_COORDINATE_TYPE>
1
5
255

>  <PUBCHEM_BONDANNOTATIONS>
25  10  3
12  31  8
12  35  8
18  28  3
26  29  3
24  3  3
30  31  8
30  32  8
32  33  8
33  35  8
33  36  8
34  38  8
34  39  8
35  37  8
36  40  8
37  41  8
38  42  8
39  43  8
19  4  3
40  41  8
42  44  8
43  44  8
20  5  3
27  6  3
21  7  3
22  8  3
23  9  3

$$$$
