74977051
 OpenBabel06082519392D

 92 97  0  0  1  0  0  0  0  0999 V2000
   11.2079   -1.7549    0.0000 O   0  0  0  0  0  0  0  0  0  0  0  0
    5.1350   -1.2393    0.0000 O   0  0  0  0  0  0  0  0  0  0  0  0
   10.3592   -0.2450    0.0000 O   0  0  0  0  0  0  0  0  0  0  0  0
    6.8671   -1.2393    0.0000 O   0  0  0  0  0  0  0  0  0  0  0  0
   10.3130   -4.2447    0.0000 O   0  0  0  0  0  0  0  0  0  0  0  0
    8.5926   -3.2247    0.0000 O   0  0  0  0  0  0  0  0  0  0  0  0
    8.6158   -1.2249    0.0000 O   0  0  0  0  0  0  0  0  0  0  0  0
    5.1350   -4.2393    0.0000 O   0  0  0  0  0  0  0  0  0  0  0  0
    3.4030   -3.2393    0.0000 O   0  0  0  0  0  0  0  0  0  0  0  0
    6.8671   -3.2393    0.0000 O   0  0  0  0  0  0  0  0  0  0  0  0
   12.9282   -2.7748    0.0000 O   0  0  0  0  0  0  0  0  0  0  0  0
    2.5369   -1.7393    0.0000 O   0  0  0  0  0  0  0  0  0  0  0  0
    8.6504    1.7749    0.0000 O   0  3  0  0  0  0  0  0  0  0  0  0
    5.1208    1.8399    0.0000 O   0  0  0  0  0  0  0  0  0  0  0  0
   13.7769   -4.2848    0.0000 O   0  0  0  0  0  0  0  0  0  0  0  0
   12.9745    1.2249    0.0000 O   0  0  0  0  0  0  0  0  0  0  0  0
   11.2773    4.2447    0.0000 O   0  0  0  0  0  0  0  0  0  0  0  0
   12.9976    3.2247    0.0000 O   0  0  0  0  0  0  0  0  0  0  0  0
   19.0074   -1.3450    0.0000 O   0  0  0  0  0  0  0  0  0  0  0  0
   10.3246   -3.2448    0.0000 C   0  0  3  0  0  0  0  0  0  0  0  0
    9.4644   -2.7348    0.0000 C   0  0  3  0  0  0  0  0  0  0  0  0
   11.1963   -2.7548    0.0000 C   0  0  3  0  0  0  0  0  0  0  0  0
    9.4759   -1.7349    0.0000 C   0  0  3  0  0  0  0  0  0  0  0  0
    5.1350   -3.2393    0.0000 C   0  0  3  0  0  0  0  0  0  0  0  0
    4.2690   -2.7393    0.0000 C   0  0  3  0  0  0  0  0  0  0  0  0
    6.0010   -2.7393    0.0000 C   0  0  3  0  0  0  0  0  0  0  0  0
    4.2690   -1.7393    0.0000 C   0  0  3  0  0  0  0  0  0  0  0  0
   10.3477   -1.2449    0.0000 C   0  0  3  0  0  0  0  0  0  0  0  0
    6.0010   -1.7393    0.0000 C   0  0  3  0  0  0  0  0  0  0  0  0
   12.0565   -3.2648    0.0000 C   0  0  0  0  0  0  0  0  0  0  0  0
    3.4030   -1.2393    0.0000 C   0  0  0  0  0  0  0  0  0  0  0  0
    9.4991    0.2650    0.0000 C   0  0  0  0  0  0  0  0  0  0  0  0
    6.8671   -0.2393    0.0000 C   0  0  0  0  0  0  0  0  0  0  0  0
    7.7671    0.2850    0.0000 C   0  0  0  0  0  0  0  0  0  0  0  0
    8.6273   -0.2249    0.0000 C   0  0  0  0  0  0  0  0  0  0  0  0
    9.5106    1.2649    0.0000 C   0  0  0  0  0  0  0  0  0  0  0  0
    7.7787    1.2850    0.0000 C   0  0  0  0  0  0  0  0  0  0  0  0
    5.9670    0.2850    0.0000 C   0  0  0  0  0  0  0  0  0  0  0  0
    6.8910    1.8299    0.0000 C   0  0  0  0  0  0  0  0  0  0  0  0
    5.9790    1.3266    0.0000 C   0  0  0  0  0  0  0  0  0  0  0  0
   10.3824    1.7549    0.0000 C   0  0  0  0  0  0  0  0  0  0  0  0
   13.7884   -3.2848    0.0000 C   0  0  0  0  0  0  0  0  0  0  0  0
   10.3939    2.7548    0.0000 C   0  0  0  0  0  0  0  0  0  0  0  0
   11.2426    1.2449    0.0000 C   0  0  0  0  0  0  0  0  0  0  0  0
   14.6602   -2.7949    0.0000 C   0  0  0  0  0  0  0  0  0  0  0  0
   12.1143    1.7349    0.0000 C   0  0  0  0  0  0  0  0  0  0  0  0
   11.2657    3.2448    0.0000 C   0  0  0  0  0  0  0  0  0  0  0  0
   12.1259    2.7348    0.0000 C   0  0  0  0  0  0  0  0  0  0  0  0
   15.5204   -3.3049    0.0000 C   0  0  0  0  0  0  0  0  0  0  0  0
   16.3921   -2.8149    0.0000 C   0  0  0  0  0  0  0  0  0  0  0  0
   16.4037   -1.8150    0.0000 C   0  0  0  0  0  0  0  0  0  0  0  0
   17.2523   -3.3249    0.0000 C   0  0  0  0  0  0  0  0  0  0  0  0
   17.2754   -1.3250    0.0000 C   0  0  0  0  0  0  0  0  0  0  0  0
   18.1240   -2.8349    0.0000 C   0  0  0  0  0  0  0  0  0  0  0  0
   18.1356   -1.8350    0.0000 C   0  0  0  0  0  0  0  0  0  0  0  0
   10.8579   -3.5610    0.0000 H   0  0  0  0  0  0  0  0  0  0  0  0
   10.0049   -2.4310    0.0000 H   0  0  0  0  0  0  0  0  0  0  0  0
   11.7368   -2.4510    0.0000 H   0  0  0  0  0  0  0  0  0  0  0  0
    8.9354   -2.0386    0.0000 H   0  0  0  0  0  0  0  0  0  0  0  0
    4.5981   -3.5493    0.0000 H   0  0  0  0  0  0  0  0  0  0  0  0
    4.2690   -3.3593    0.0000 H   0  0  0  0  0  0  0  0  0  0  0  0
    6.0010   -3.3593    0.0000 H   0  0  0  0  0  0  0  0  0  0  0  0
    4.2690   -1.1193    0.0000 H   0  0  0  0  0  0  0  0  0  0  0  0
    9.8144   -0.9287    0.0000 H   0  0  0  0  0  0  0  0  0  0  0  0
    6.0010   -1.1193    0.0000 H   0  0  0  0  0  0  0  0  0  0  0  0
   11.6525   -3.7351    0.0000 H   0  0  0  0  0  0  0  0  0  0  0  0
   12.4495   -3.7443    0.0000 H   0  0  0  0  0  0  0  0  0  0  0  0
    3.8015   -0.7643    0.0000 H   0  0  0  0  0  0  0  0  0  0  0  0
    3.0044   -0.7643    0.0000 H   0  0  0  0  0  0  0  0  0  0  0  0
   10.8463   -4.5609    0.0000 H   0  0  0  0  0  0  0  0  0  0  0  0
    8.5854   -3.8447    0.0000 H   0  0  0  0  0  0  0  0  0  0  0  0
    8.0753   -1.5286    0.0000 H   0  0  0  0  0  0  0  0  0  0  0  0
    4.5981   -4.5493    0.0000 H   0  0  0  0  0  0  0  0  0  0  0  0
    3.4030   -3.8593    0.0000 H   0  0  0  0  0  0  0  0  0  0  0  0
    6.8671   -3.8593    0.0000 H   0  0  0  0  0  0  0  0  0  0  0  0
    8.6201   -0.8449    0.0000 H   0  0  0  0  0  0  0  0  0  0  0  0
    2.0000   -1.4293    0.0000 H   0  0  0  0  0  0  0  0  0  0  0  0
    5.4277   -0.0208    0.0000 H   0  0  0  0  0  0  0  0  0  0  0  0
    6.9053    2.4498    0.0000 H   0  0  0  0  0  0  0  0  0  0  0  0
    9.8606    3.0710    0.0000 H   0  0  0  0  0  0  0  0  0  0  0  0
   11.2354    0.6250    0.0000 H   0  0  0  0  0  0  0  0  0  0  0  0
   14.6673   -2.1749    0.0000 H   0  0  0  0  0  0  0  0  0  0  0  0
    5.1304    2.4598    0.0000 H   0  0  0  0  0  0  0  0  0  0  0  0
   15.5132   -3.9248    0.0000 H   0  0  0  0  0  0  0  0  0  0  0  0
   13.5150    1.5286    0.0000 H   0  0  0  0  0  0  0  0  0  0  0  0
   10.7439    4.5609    0.0000 H   0  0  0  0  0  0  0  0  0  0  0  0
   13.0048    3.8447    0.0000 H   0  0  0  0  0  0  0  0  0  0  0  0
   15.8704   -1.4988    0.0000 H   0  0  0  0  0  0  0  0  0  0  0  0
   17.2451   -3.9448    0.0000 H   0  0  0  0  0  0  0  0  0  0  0  0
   17.2826   -0.7051    0.0000 H   0  0  0  0  0  0  0  0  0  0  0  0
   18.6574   -3.1511    0.0000 H   0  0  0  0  0  0  0  0  0  0  0  0
   19.5407   -1.6612    0.0000 H   0  0  0  0  0  0  0  0  0  0  0  0
  1 22  1  0  0  0  0
  1 28  1  0  0  0  0
  2 27  1  0  0  0  0
  2 29  1  0  0  0  0
  3 28  1  0  0  0  0
  3 32  1  0  0  0  0
  4 29  1  0  0  0  0
  4 33  1  0  0  0  0
  5 20  1  0  0  0  0
  5 70  1  0  0  0  0
  6 21  1  0  0  0  0
  6 71  1  0  0  0  0
  7 23  1  0  0  0  0
  7 72  1  0  0  0  0
  8 24  1  0  0  0  0
  8 73  1  0  0  0  0
  9 25  1  0  0  0  0
  9 74  1  0  0  0  0
 10 26  1  0  0  0  0
 10 75  1  0  0  0  0
 11 30  1  0  0  0  0
 11 42  1  0  0  0  0
 12 31  1  0  0  0  0
 12 77  1  0  0  0  0
 13 36  1  0  0  0  0
 13 37  2  0  0  0  0
 14 40  1  0  0  0  0
 14 83  1  0  0  0  0
 15 42  2  0  0  0  0
 16 46  1  0  0  0  0
 16 85  1  0  0  0  0
 17 47  1  0  0  0  0
 17 86  1  0  0  0  0
 18 48  1  0  0  0  0
 18 87  1  0  0  0  0
 19 55  1  0  0  0  0
 19 92  1  0  0  0  0
 20 21  1  0  0  0  0
 20 22  1  0  0  0  0
 20 56  1  0  0  0  0
 21 23  1  0  0  0  0
 21 57  1  0  0  0  0
 22 30  1  0  0  0  0
 22 58  1  0  0  0  0
 23 28  1  0  0  0  0
 23 59  1  0  0  0  0
 24 25  1  0  0  0  0
 24 26  1  0  0  0  0
 24 60  1  0  0  0  0
 25 27  1  0  0  0  0
 25 61  1  0  0  0  0
 26 29  1  0  0  0  0
 26 62  1  0  0  0  0
 27 31  1  0  0  0  0
 27 63  1  0  0  0  0
 28 64  1  0  0  0  0
 29 65  1  0  0  0  0
 30 66  1  0  0  0  0
 30 67  1  0  0  0  0
 31 68  1  0  0  0  0
 31 69  1  0  0  0  0
 32 35  1  0  0  0  0
 32 36  2  0  0  0  0
 33 34  1  0  0  0  0
 33 38  2  0  0  0  0
 34 35  2  0  0  0  0
 34 37  1  0  0  0  0
 35 76  1  0  0  0  0
 36 41  1  0  0  0  0
 37 39  1  0  0  0  0
 38 40  1  0  0  0  0
 38 78  1  0  0  0  0
 39 40  2  0  0  0  0
 39 79  1  0  0  0  0
 41 43  2  0  0  0  0
 41 44  1  0  0  0  0
 42 45  1  0  0  0  0
 43 47  1  0  0  0  0
 43 80  1  0  0  0  0
 44 46  2  0  0  0  0
 44 81  1  0  0  0  0
 45 49  2  3  0  0  0
 45 82  1  0  0  0  0
 46 48  1  0  0  0  0
 47 48  2  0  0  0  0
 49 50  1  0  0  0  0
 49 84  1  0  0  0  0
 50 51  2  0  0  0  0
 50 52  1  0  0  0  0
 51 53  1  0  0  0  0
 51 88  1  0  0  0  0
 52 54  2  0  0  0  0
 52 89  1  0  0  0  0
 53 55  2  0  0  0  0
 53 90  1  0  0  0  0
 54 55  1  0  0  0  0
 54 91  1  0  0  0  0
M  CHG  1  13   1
M  END
>  <PUBCHEM_COMPOUND_CID>
74977051

>  <PUBCHEM_COMPOUND_CANONICALIZED>
1

>  <PUBCHEM_CACTVS_COMPLEXITY>
1260

>  <PUBCHEM_CACTVS_HBOND_ACCEPTOR>
18

>  <PUBCHEM_CACTVS_HBOND_DONOR>
12

>  <PUBCHEM_CACTVS_ROTATABLE_BOND>
11

>  <PUBCHEM_CACTVS_SUBSKEYS>
AAADcfB8PgAAAAAAAAAAAAAAAAAAAAAAAAA0aNECAAAAAACR9AAAGgAACAAADBSwmAMwDsAABkCIAqDSCAICCAAkIAAIiAFGiMgdNzaGNR6ieWOl4BUPuYfK7PzOIAABCAAIQABAAAIQABCAAAAAAAAAAA==

>  <PUBCHEM_IUPAC_OPENEYE_NAME>
[3,4,5-trihydroxy-6-[7-hydroxy-5-[3,4,5-trihydroxy-6-(hydroxymethyl)tetrahydropyran-2-yl]oxy-2-(3,4,5-trihydroxyphenyl)chromenylium-3-yl]oxy-tetrahydropyran-2-yl]methyl 3-(4-hydroxyphenyl)prop-2-enoate

>  <PUBCHEM_IUPAC_CAS_NAME>
3-(4-hydroxyphenyl)-2-propenoic acid [3,4,5-trihydroxy-6-[[7-hydroxy-5-[[3,4,5-trihydroxy-6-(hydroxymethyl)-2-oxanyl]oxy]-2-(3,4,5-trihydroxyphenyl)-1-benzopyrylium-3-yl]oxy]-2-oxanyl]methyl ester

>  <PUBCHEM_IUPAC_NAME_MARKUP>
[3,4,5-trihydroxy-6-[7-hydroxy-5-[3,4,5-trihydroxy-6-(hydroxymethyl)oxan-2-yl]oxy-2-(3,4,5-trihydroxyphenyl)chromenylium-3-yl]oxyoxan-2-yl]methyl 3-(4-hydroxyphenyl)prop-2-enoate

>  <PUBCHEM_IUPAC_NAME>
[3,4,5-trihydroxy-6-[7-hydroxy-5-[3,4,5-trihydroxy-6-(hydroxymethyl)oxan-2-yl]oxy-2-(3,4,5-trihydroxyphenyl)chromenylium-3-yl]oxyoxan-2-yl]methyl 3-(4-hydroxyphenyl)prop-2-enoate

>  <PUBCHEM_IUPAC_SYSTEMATIC_NAME>
[6-[5-[6-(hydroxymethyl)-3,4,5-tris(oxidanyl)oxan-2-yl]oxy-7-oxidanyl-2-[3,4,5-tris(oxidanyl)phenyl]chromenylium-3-yl]oxy-3,4,5-tris(oxidanyl)oxan-2-yl]methyl 3-(4-hydroxyphenyl)prop-2-enoate

>  <PUBCHEM_IUPAC_TRADITIONAL_NAME>
3-(4-hydroxyphenyl)acrylic acid [3,4,5-trihydroxy-6-[[7-hydroxy-5-(3,4,5-trihydroxy-6-methylol-tetrahydropyran-2-yl)oxy-2-(3,4,5-trihydroxyphenyl)-1-benzopyrylium-3-yl]oxy]tetrahydropyran-2-yl]methyl ester

>  <PUBCHEM_IUPAC_INCHI>
InChI=1S/C36H36O19/c37-12-24-28(44)30(46)32(48)35(54-24)52-22-10-17(39)9-21-18(22)11-23(34(51-21)15-7-19(40)27(43)20(41)8-15)53-36-33(49)31(47)29(45)25(55-36)13-50-26(42)6-3-14-1-4-16(38)5-2-14/h1-11,24-25,28-33,35-37,44-49H,12-13H2,(H4-,38,39,40,41,42,43)/p+1

>  <PUBCHEM_IUPAC_INCHIKEY>
HXWHJZIJSNBCJX-UHFFFAOYSA-O

>  <PUBCHEM_EXACT_MASS>
773.19290395

>  <PUBCHEM_MOLECULAR_FORMULA>
C36H37O19+

>  <PUBCHEM_MOLECULAR_WEIGHT>
773.7

>  <PUBCHEM_SMILES>
C1=CC(=CC=C1C=CC(=O)OCC2C(C(C(C(O2)OC3=C([O+]=C4C=C(C=C(C4=C3)OC5C(C(C(C(O5)CO)O)O)O)O)C6=CC(=C(C(=C6)O)O)O)O)O)O)O

>  <PUBCHEM_OPENEYE_CAN_SMILES>
C1=CC(=CC=C1C=CC(=O)OCC2C(C(C(C(O2)OC3=C([O+]=C4C=C(C=C(C4=C3)OC5C(C(C(C(O5)CO)O)O)O)O)C6=CC(=C(C(=C6)O)O)O)O)O)O)O

>  <PUBCHEM_OPENEYE_ISO_SMILES>
C1=CC(=CC=C1C=CC(=O)OCC2C(C(C(C(O2)OC3=C([O+]=C4C=C(C=C(C4=C3)OC5C(C(C(C(O5)CO)O)O)O)O)C6=CC(=C(C(=C6)O)O)O)O)O)O)O

>  <PUBCHEM_CACTVS_TPSA>
307

>  <PUBCHEM_MONOISOTOPIC_WEIGHT>
773.19290395

>  <PUBCHEM_TOTAL_CHARGE>
1

>  <PUBCHEM_HEAVY_ATOM_COUNT>
55

>  <PUBCHEM_ATOM_DEF_STEREO_COUNT>
0

>  <PUBCHEM_ATOM_UDEF_STEREO_COUNT>
10

>  <PUBCHEM_BOND_DEF_STEREO_COUNT>
0

>  <PUBCHEM_BOND_UDEF_STEREO_COUNT>
1

>  <PUBCHEM_ISOTOPIC_ATOM_COUNT>
0

>  <PUBCHEM_COMPONENT_COUNT>
1

>  <PUBCHEM_CACTVS_TAUTO_COUNT>
-1

>  <PUBCHEM_COORDINATE_TYPE>
1
5
255

>  <PUBCHEM_BONDANNOTATIONS>
26  10  3
13  36  8
13  37  8
22  30  3
27  31  3
28  3  3
32  35  8
32  36  8
33  34  8
33  38  8
34  35  8
34  37  8
37  39  8
38  40  8
39  40  8
29  4  3
41  43  8
41  44  8
43  47  8
44  46  8
45  49  1
46  48  8
47  48  8
20  5  3
50  51  8
50  52  8
51  53  8
52  54  8
53  55  8
54  55  8
21  6  3
23  7  3
24  8  3
25  9  3

$$$$
