74977595
 OpenBabel06082519392D

 93 98  0  0  1  0  0  0  0  0999 V2000
    9.8646    3.8450    0.0000 O   0  0  0  0  0  0  0  0  0  0  0  0
    8.9985   -0.6550    0.0000 O   0  0  0  0  0  0  0  0  0  0  0  0
    9.8646    0.8450    0.0000 O   0  0  0  0  0  0  0  0  0  0  0  0
    8.1325   -3.1550    0.0000 O   0  0  0  0  0  0  0  0  0  0  0  0
    6.4004   -3.1550    0.0000 O   0  0  0  0  0  0  0  0  0  0  0  0
   10.7306    1.3450    0.0000 O   0  0  0  0  0  0  0  0  0  0  0  0
    9.8646   -3.1550    0.0000 O   0  0  0  0  0  0  0  0  0  0  0  0
   12.4626    2.3450    0.0000 O   0  0  0  0  0  0  0  0  0  0  0  0
   11.5966   -2.1550    0.0000 O   0  0  0  0  0  0  0  0  0  0  0  0
   12.4626    4.3450    0.0000 O   0  0  0  0  0  0  0  0  0  0  0  0
   11.5966   -0.1550    0.0000 O   0  0  0  0  0  0  0  0  0  0  0  0
    8.1325   -5.1550    0.0000 O   0  0  0  0  0  0  0  0  0  0  0  0
    6.4004   -6.1550    0.0000 O   0  0  0  0  0  0  0  0  0  0  0  0
    4.6684   -5.1550    0.0000 O   0  0  0  0  0  0  0  0  0  0  0  0
   11.5966    5.8450    0.0000 O   0  0  0  0  0  0  0  0  0  0  0  0
    8.1325    3.8450    0.0000 O   0  0  0  0  0  0  0  0  0  0  0  0
    6.3725    0.8103    0.0000 O   0  0  0  0  0  0  0  0  0  0  0  0
    6.3841    3.8796    0.0000 O   0  0  0  0  0  0  0  0  0  0  0  0
    2.0024    1.3108    0.0000 O   0  0  0  0  0  0  0  0  0  0  0  0
    2.0101   -0.6892    0.0000 O   0  0  0  0  0  0  0  0  0  0  0  0
    9.8646    2.8450    0.0000 C   0  0  3  0  0  0  0  0  0  0  0  0
    8.9985   -1.6550    0.0000 C   0  0  3  0  0  0  0  0  0  0  0  0
   10.7306    2.3450    0.0000 C   0  0  3  0  0  0  0  0  0  0  0  0
    9.8646   -2.1550    0.0000 C   0  0  3  0  0  0  0  0  0  0  0  0
   11.5966    2.8450    0.0000 C   0  0  3  0  0  0  0  0  0  0  0  0
   10.7306   -1.6550    0.0000 C   0  0  3  0  0  0  0  0  0  0  0  0
   11.5966    3.8450    0.0000 C   0  0  3  0  0  0  0  0  0  0  0  0
   10.7306   -0.6550    0.0000 C   0  0  3  0  0  0  0  0  0  0  0  0
   10.7306    4.3450    0.0000 C   0  0  3  0  0  0  0  0  0  0  0  0
    9.8646   -0.1550    0.0000 C   0  0  3  0  0  0  0  0  0  0  0  0
    8.9985    2.3450    0.0000 C   0  0  0  0  0  0  0  0  0  0  0  0
    8.1325   -2.1550    0.0000 C   0  0  0  0  0  0  0  0  0  0  0  0
    7.2665   -3.6550    0.0000 C   0  0  3  0  0  0  0  0  0  0  0  0
    7.2665   -4.6550    0.0000 C   0  0  3  0  0  0  0  0  0  0  0  0
    6.4004   -5.1550    0.0000 C   0  0  3  0  0  0  0  0  0  0  0  0
    5.5344   -4.6550    0.0000 C   0  0  3  0  0  0  0  0  0  0  0  0
    5.5344   -3.6550    0.0000 C   0  0  3  0  0  0  0  0  0  0  0  0
    8.9985    1.3450    0.0000 C   0  0  0  0  0  0  0  0  0  0  0  0
   10.7306    5.3450    0.0000 C   0  0  0  0  0  0  0  0  0  0  0  0
    8.1325    2.8450    0.0000 C   0  0  0  0  0  0  0  0  0  0  0  0
    8.1325    0.8450    0.0000 C   0  0  0  0  0  0  0  0  0  0  0  0
    4.6684   -3.1550    0.0000 C   0  0  0  0  0  0  0  0  0  0  0  0
    7.2665    2.3450    0.0000 C   0  0  0  0  0  0  0  0  0  0  0  0
    7.2665    1.3450    0.0000 C   0  0  0  0  0  0  0  0  0  0  0  0
    6.3725    2.8797    0.0000 C   0  0  0  0  0  0  0  0  0  0  0  0
    5.4665    2.3658    0.0000 C   0  0  0  0  0  0  0  0  0  0  0  0
    5.4665    1.3242    0.0000 C   0  0  0  0  0  0  0  0  0  0  0  0
    4.6024    0.8208    0.0000 C   0  0  0  0  0  0  0  0  0  0  0  0
    3.7344    1.3175    0.0000 C   0  0  0  0  0  0  0  0  0  0  0  0
    4.6062   -0.1791    0.0000 C   0  0  0  0  0  0  0  0  0  0  0  0
    2.8703    0.8142    0.0000 C   0  0  0  0  0  0  0  0  0  0  0  0
    3.7421   -0.6825    0.0000 C   0  0  0  0  0  0  0  0  0  0  0  0
    2.8742   -0.1858    0.0000 C   0  0  0  0  0  0  0  0  0  0  0  0
    9.3276    3.1550    0.0000 H   0  0  0  0  0  0  0  0  0  0  0  0
    8.4616   -1.3450    0.0000 H   0  0  0  0  0  0  0  0  0  0  0  0
   10.1936    2.0350    0.0000 H   0  0  0  0  0  0  0  0  0  0  0  0
    9.3276   -2.4650    0.0000 H   0  0  0  0  0  0  0  0  0  0  0  0
   11.5966    2.2250    0.0000 H   0  0  0  0  0  0  0  0  0  0  0  0
   10.7306   -2.2750    0.0000 H   0  0  0  0  0  0  0  0  0  0  0  0
   12.1335    3.5350    0.0000 H   0  0  0  0  0  0  0  0  0  0  0  0
   11.2675   -0.9650    0.0000 H   0  0  0  0  0  0  0  0  0  0  0  0
   10.1936    4.6550    0.0000 H   0  0  0  0  0  0  0  0  0  0  0  0
    9.3276    0.1550    0.0000 H   0  0  0  0  0  0  0  0  0  0  0  0
    7.9204   -1.5724    0.0000 H   0  0  0  0  0  0  0  0  0  0  0  0
    7.5219   -2.2627    0.0000 H   0  0  0  0  0  0  0  0  0  0  0  0
    7.8034   -3.9650    0.0000 H   0  0  0  0  0  0  0  0  0  0  0  0
    7.2665   -5.2750    0.0000 H   0  0  0  0  0  0  0  0  0  0  0  0
    5.8635   -5.4650    0.0000 H   0  0  0  0  0  0  0  0  0  0  0  0
    5.5344   -5.2750    0.0000 H   0  0  0  0  0  0  0  0  0  0  0  0
    5.5344   -3.0350    0.0000 H   0  0  0  0  0  0  0  0  0  0  0  0
   10.5185    5.9276    0.0000 H   0  0  0  0  0  0  0  0  0  0  0  0
   10.1200    5.2373    0.0000 H   0  0  0  0  0  0  0  0  0  0  0  0
   11.2675    1.0350    0.0000 H   0  0  0  0  0  0  0  0  0  0  0  0
   10.4015   -3.4650    0.0000 H   0  0  0  0  0  0  0  0  0  0  0  0
    8.1325    0.2250    0.0000 H   0  0  0  0  0  0  0  0  0  0  0  0
   12.9996    2.6550    0.0000 H   0  0  0  0  0  0  0  0  0  0  0  0
   12.1335   -1.8450    0.0000 H   0  0  0  0  0  0  0  0  0  0  0  0
    4.9784   -2.6181    0.0000 H   0  0  0  0  0  0  0  0  0  0  0  0
    4.1315   -2.8450    0.0000 H   0  0  0  0  0  0  0  0  0  0  0  0
    4.3584   -3.6919    0.0000 H   0  0  0  0  0  0  0  0  0  0  0  0
   12.9996    4.0350    0.0000 H   0  0  0  0  0  0  0  0  0  0  0  0
   11.5966    0.4650    0.0000 H   0  0  0  0  0  0  0  0  0  0  0  0
    8.6694   -4.8450    0.0000 H   0  0  0  0  0  0  0  0  0  0  0  0
    5.8635   -6.4650    0.0000 H   0  0  0  0  0  0  0  0  0  0  0  0
    4.1315   -4.8450    0.0000 H   0  0  0  0  0  0  0  0  0  0  0  0
   11.5966    6.4650    0.0000 H   0  0  0  0  0  0  0  0  0  0  0  0
    7.5956    4.1550    0.0000 H   0  0  0  0  0  0  0  0  0  0  0  0
    4.9307    2.6779    0.0000 H   0  0  0  0  0  0  0  0  0  0  0  0
    3.7320    1.9375    0.0000 H   0  0  0  0  0  0  0  0  0  0  0  0
    5.1444   -0.4871    0.0000 H   0  0  0  0  0  0  0  0  0  0  0  0
    3.7445   -1.3025    0.0000 H   0  0  0  0  0  0  0  0  0  0  0  0
    2.0000    1.9308    0.0000 H   0  0  0  0  0  0  0  0  0  0  0  0
    2.0125   -1.3092    0.0000 H   0  0  0  0  0  0  0  0  0  0  0  0
  1 21  1  0  0  0  0
  1 29  1  0  0  0  0
  2 22  1  0  0  0  0
  2 30  1  0  0  0  0
  3 30  1  0  0  0  0
  3 38  1  0  0  0  0
  4 32  1  0  0  0  0
  4 33  1  0  0  0  0
  5 33  1  0  0  0  0
  5 37  1  0  0  0  0
  6 23  1  0  0  0  0
  6 73  1  0  0  0  0
  7 24  1  0  0  0  0
  7 74  1  0  0  0  0
  8 25  1  0  0  0  0
  8 76  1  0  0  0  0
  9 26  1  0  0  0  0
  9 77  1  0  0  0  0
 10 27  1  0  0  0  0
 10 81  1  0  0  0  0
 11 28  1  0  0  0  0
 11 82  1  0  0  0  0
 12 34  1  0  0  0  0
 12 83  1  0  0  0  0
 13 35  1  0  0  0  0
 13 84  1  0  0  0  0
 14 36  1  0  0  0  0
 14 85  1  0  0  0  0
 15 39  1  0  0  0  0
 15 86  1  0  0  0  0
 16 40  1  0  0  0  0
 16 87  1  0  0  0  0
 17 44  1  0  0  0  0
 17 47  1  0  0  0  0
 18 45  2  0  0  0  0
 19 51  1  0  0  0  0
 19 92  1  0  0  0  0
 20 53  1  0  0  0  0
 20 93  1  0  0  0  0
 21 23  1  0  0  0  0
 21 31  1  0  0  0  0
 21 54  1  0  0  0  0
 22 24  1  0  0  0  0
 22 32  1  0  0  0  0
 22 55  1  0  0  0  0
 23 25  1  0  0  0  0
 23 56  1  0  0  0  0
 24 26  1  0  0  0  0
 24 57  1  0  0  0  0
 25 27  1  0  0  0  0
 25 58  1  0  0  0  0
 26 28  1  0  0  0  0
 26 59  1  0  0  0  0
 27 29  1  0  0  0  0
 27 60  1  0  0  0  0
 28 30  1  0  0  0  0
 28 61  1  0  0  0  0
 29 39  1  0  0  0  0
 29 62  1  0  0  0  0
 30 63  1  0  0  0  0
 31 38  2  0  0  0  0
 31 40  1  0  0  0  0
 32 64  1  0  0  0  0
 32 65  1  0  0  0  0
 33 34  1  0  0  0  0
 33 66  1  0  0  0  0
 34 35  1  0  0  0  0
 34 67  1  0  0  0  0
 35 36  1  0  0  0  0
 35 68  1  0  0  0  0
 36 37  1  0  0  0  0
 36 69  1  0  0  0  0
 37 42  1  0  0  0  0
 37 70  1  0  0  0  0
 38 41  1  0  0  0  0
 39 71  1  0  0  0  0
 39 72  1  0  0  0  0
 40 43  2  0  0  0  0
 41 44  2  0  0  0  0
 41 75  1  0  0  0  0
 42 78  1  0  0  0  0
 42 79  1  0  0  0  0
 42 80  1  0  0  0  0
 43 44  1  0  0  0  0
 43 45  1  0  0  0  0
 45 46  1  0  0  0  0
 46 47  2  0  0  0  0
 46 88  1  0  0  0  0
 47 48  1  0  0  0  0
 48 49  2  0  0  0  0
 48 50  1  0  0  0  0
 49 51  1  0  0  0  0
 49 89  1  0  0  0  0
 50 52  2  0  0  0  0
 50 90  1  0  0  0  0
 51 53  2  0  0  0  0
 52 53  1  0  0  0  0
 52 91  1  0  0  0  0
M  END
>  <PUBCHEM_COMPOUND_CID>
74977595

>  <PUBCHEM_COMPOUND_CANONICALIZED>
1

>  <PUBCHEM_CACTVS_COMPLEXITY>
1290

>  <PUBCHEM_CACTVS_HBOND_ACCEPTOR>
20

>  <PUBCHEM_CACTVS_HBOND_DONOR>
13

>  <PUBCHEM_CACTVS_ROTATABLE_BOND>
8

>  <PUBCHEM_CACTVS_SUBSKEYS>
AAADcfB8PgAAAAAAAAAAAAAAAAAAAAAAAAA0aJECAAAAAACBQAAAGgAACAAADBSwmAMyDoAABgCIAqBSAAACCAAkIAAIiAEGiMgdNzaGNRqieWGl4BUPuQfI7PzOIAADCAAIQABAAAYQABCAAAAAAAAAAA==

>  <PUBCHEM_IUPAC_OPENEYE_NAME>
2-(3,4-dihydroxyphenyl)-5-hydroxy-6-[3,4,5-trihydroxy-6-(hydroxymethyl)tetrahydropyran-2-yl]-7-[3,4,5-trihydroxy-6-[(3,4,5-trihydroxy-6-methyl-tetrahydropyran-2-yl)oxymethyl]tetrahydropyran-2-yl]oxy-chromen-4-one

>  <PUBCHEM_IUPAC_CAS_NAME>
2-(3,4-dihydroxyphenyl)-5-hydroxy-6-[3,4,5-trihydroxy-6-(hydroxymethyl)-2-oxanyl]-7-[[3,4,5-trihydroxy-6-[(3,4,5-trihydroxy-6-methyl-2-oxanyl)oxymethyl]-2-oxanyl]oxy]-1-benzopyran-4-one

>  <PUBCHEM_IUPAC_NAME_MARKUP>
2-(3,4-dihydroxyphenyl)-5-hydroxy-6-[3,4,5-trihydroxy-6-(hydroxymethyl)oxan-2-yl]-7-[3,4,5-trihydroxy-6-[(3,4,5-trihydroxy-6-methyloxan-2-yl)oxymethyl]oxan-2-yl]oxychromen-4-one

>  <PUBCHEM_IUPAC_NAME>
2-(3,4-dihydroxyphenyl)-5-hydroxy-6-[3,4,5-trihydroxy-6-(hydroxymethyl)oxan-2-yl]-7-[3,4,5-trihydroxy-6-[(3,4,5-trihydroxy-6-methyloxan-2-yl)oxymethyl]oxan-2-yl]oxychromen-4-one

>  <PUBCHEM_IUPAC_SYSTEMATIC_NAME>
2-[3,4-bis(oxidanyl)phenyl]-6-[6-(hydroxymethyl)-3,4,5-tris(oxidanyl)oxan-2-yl]-7-[6-[[6-methyl-3,4,5-tris(oxidanyl)oxan-2-yl]oxymethyl]-3,4,5-tris(oxidanyl)oxan-2-yl]oxy-5-oxidanyl-chromen-4-one

>  <PUBCHEM_IUPAC_TRADITIONAL_NAME>
2-(3,4-dihydroxyphenyl)-5-hydroxy-6-(3,4,5-trihydroxy-6-methylol-tetrahydropyran-2-yl)-7-[3,4,5-trihydroxy-6-[(3,4,5-trihydroxy-6-methyl-tetrahydropyran-2-yl)oxymethyl]tetrahydropyran-2-yl]oxy-chromone

>  <PUBCHEM_IUPAC_INCHI>
InChI=1S/C33H40O20/c1-9-21(38)25(42)29(46)32(49-9)48-8-18-23(40)27(44)30(47)33(53-18)52-16-6-15-19(13(37)5-14(50-15)10-2-3-11(35)12(36)4-10)24(41)20(16)31-28(45)26(43)22(39)17(7-34)51-31/h2-6,9,17-18,21-23,25-36,38-47H,7-8H2,1H3

>  <PUBCHEM_IUPAC_INCHIKEY>
LHMSJZLSCNPWNJ-UHFFFAOYSA-N

>  <PUBCHEM_XLOGP3_AA>
-3.6

>  <PUBCHEM_EXACT_MASS>
756.21129366

>  <PUBCHEM_MOLECULAR_FORMULA>
C33H40O20

>  <PUBCHEM_MOLECULAR_WEIGHT>
756.7

>  <PUBCHEM_SMILES>
CC1C(C(C(C(O1)OCC2C(C(C(C(O2)OC3=C(C(=C4C(=C3)OC(=CC4=O)C5=CC(=C(C=C5)O)O)O)C6C(C(C(C(O6)CO)O)O)O)O)O)O)O)O)O

>  <PUBCHEM_OPENEYE_CAN_SMILES>
CC1C(C(C(C(O1)OCC2C(C(C(C(O2)OC3=C(C(=C4C(=C3)OC(=CC4=O)C5=CC(=C(C=C5)O)O)O)C6C(C(C(C(O6)CO)O)O)O)O)O)O)O)O)O

>  <PUBCHEM_OPENEYE_ISO_SMILES>
CC1C(C(C(C(O1)OCC2C(C(C(C(O2)OC3=C(C(=C4C(=C3)OC(=CC4=O)C5=CC(=C(C=C5)O)O)O)C6C(C(C(C(O6)CO)O)O)O)O)O)O)O)O)O

>  <PUBCHEM_CACTVS_TPSA>
335

>  <PUBCHEM_MONOISOTOPIC_WEIGHT>
756.21129366

>  <PUBCHEM_TOTAL_CHARGE>
0

>  <PUBCHEM_HEAVY_ATOM_COUNT>
53

>  <PUBCHEM_ATOM_DEF_STEREO_COUNT>
0

>  <PUBCHEM_ATOM_UDEF_STEREO_COUNT>
15

>  <PUBCHEM_BOND_DEF_STEREO_COUNT>
0

>  <PUBCHEM_BOND_UDEF_STEREO_COUNT>
0

>  <PUBCHEM_ISOTOPIC_ATOM_COUNT>
0

>  <PUBCHEM_COMPONENT_COUNT>
1

>  <PUBCHEM_CACTVS_TAUTO_COUNT>
-1

>  <PUBCHEM_COORDINATE_TYPE>
1
5
255

>  <PUBCHEM_BONDANNOTATIONS>
27  10  3
28  11  3
34  12  3
35  13  3
36  14  3
17  44  8
17  47  8
21  31  3
22  32  3
29  39  3
30  3  3
31  38  8
31  40  8
37  42  3
38  41  8
33  4  3
40  43  8
41  44  8
43  44  8
43  45  8
45  46  8
46  47  8
48  49  8
48  50  8
49  51  8
50  52  8
51  53  8
52  53  8
23  6  3
24  7  3
25  8  3
26  9  3

$$$$
