74977123
 OpenBabel06082519392D

 98103  0  0  1  0  0  0  0  0999 V2000
   11.2079   -1.8518    0.0000 O   0  0  0  0  0  0  0  0  0  0  0  0
    5.1350   -1.3362    0.0000 O   0  0  0  0  0  0  0  0  0  0  0  0
   10.3592   -0.3419    0.0000 O   0  0  0  0  0  0  0  0  0  0  0  0
    6.8671   -1.3362    0.0000 O   0  0  0  0  0  0  0  0  0  0  0  0
   10.3130   -4.3416    0.0000 O   0  0  0  0  0  0  0  0  0  0  0  0
    8.5926   -3.3216    0.0000 O   0  0  0  0  0  0  0  0  0  0  0  0
    8.6158   -1.3218    0.0000 O   0  0  0  0  0  0  0  0  0  0  0  0
    5.1350   -4.3362    0.0000 O   0  0  0  0  0  0  0  0  0  0  0  0
    3.4030   -3.3362    0.0000 O   0  0  0  0  0  0  0  0  0  0  0  0
    6.8671   -3.3362    0.0000 O   0  0  0  0  0  0  0  0  0  0  0  0
   12.9282   -2.8718    0.0000 O   0  0  0  0  0  0  0  0  0  0  0  0
    2.5369   -1.8362    0.0000 O   0  0  0  0  0  0  0  0  0  0  0  0
    8.6504    1.6780    0.0000 O   0  3  0  0  0  0  0  0  0  0  0  0
    5.1208    1.7430    0.0000 O   0  0  0  0  0  0  0  0  0  0  0  0
   13.7769   -4.3817    0.0000 O   0  0  0  0  0  0  0  0  0  0  0  0
   11.2773    4.1478    0.0000 O   0  0  0  0  0  0  0  0  0  0  0  0
   12.9745    1.1280    0.0000 O   0  0  0  0  0  0  0  0  0  0  0  0
   12.9976    3.1278    0.0000 O   0  0  0  0  0  0  0  0  0  0  0  0
   19.0074   -1.4420    0.0000 O   0  0  0  0  0  0  0  0  0  0  0  0
   10.3246   -3.3417    0.0000 C   0  0  3  0  0  0  0  0  0  0  0  0
    9.4644   -2.8317    0.0000 C   0  0  3  0  0  0  0  0  0  0  0  0
   11.1963   -2.8517    0.0000 C   0  0  3  0  0  0  0  0  0  0  0  0
    9.4759   -1.8318    0.0000 C   0  0  3  0  0  0  0  0  0  0  0  0
    5.1350   -3.3362    0.0000 C   0  0  3  0  0  0  0  0  0  0  0  0
    4.2690   -2.8362    0.0000 C   0  0  3  0  0  0  0  0  0  0  0  0
    6.0010   -2.8362    0.0000 C   0  0  3  0  0  0  0  0  0  0  0  0
    4.2690   -1.8362    0.0000 C   0  0  3  0  0  0  0  0  0  0  0  0
   10.3477   -1.3418    0.0000 C   0  0  3  0  0  0  0  0  0  0  0  0
    6.0010   -1.8362    0.0000 C   0  0  3  0  0  0  0  0  0  0  0  0
   12.0565   -3.3617    0.0000 C   0  0  0  0  0  0  0  0  0  0  0  0
    3.4030   -1.3362    0.0000 C   0  0  0  0  0  0  0  0  0  0  0  0
    9.4991    0.1681    0.0000 C   0  0  0  0  0  0  0  0  0  0  0  0
    6.8671   -0.3362    0.0000 C   0  0  0  0  0  0  0  0  0  0  0  0
    7.7671    0.1881    0.0000 C   0  0  0  0  0  0  0  0  0  0  0  0
    8.6273   -0.3218    0.0000 C   0  0  0  0  0  0  0  0  0  0  0  0
    9.5106    1.1680    0.0000 C   0  0  0  0  0  0  0  0  0  0  0  0
    7.7787    1.1881    0.0000 C   0  0  0  0  0  0  0  0  0  0  0  0
    5.9670    0.1881    0.0000 C   0  0  0  0  0  0  0  0  0  0  0  0
    6.8910    1.7330    0.0000 C   0  0  0  0  0  0  0  0  0  0  0  0
   10.3824    1.6580    0.0000 C   0  0  0  0  0  0  0  0  0  0  0  0
    5.9790    1.2297    0.0000 C   0  0  0  0  0  0  0  0  0  0  0  0
   13.7884   -3.3817    0.0000 C   0  0  0  0  0  0  0  0  0  0  0  0
   11.2426    1.1480    0.0000 C   0  0  0  0  0  0  0  0  0  0  0  0
   10.3939    2.6579    0.0000 C   0  0  0  0  0  0  0  0  0  0  0  0
   14.6602   -2.8918    0.0000 C   0  0  0  0  0  0  0  0  0  0  0  0
   11.2657    3.1479    0.0000 C   0  0  0  0  0  0  0  0  0  0  0  0
   12.1143    1.6380    0.0000 C   0  0  0  0  0  0  0  0  0  0  0  0
   12.1259    2.6379    0.0000 C   0  0  0  0  0  0  0  0  0  0  0  0
   15.5204   -3.4018    0.0000 C   0  0  0  0  0  0  0  0  0  0  0  0
   16.3921   -2.9118    0.0000 C   0  0  0  0  0  0  0  0  0  0  0  0
   10.4171    4.6578    0.0000 C   0  0  0  0  0  0  0  0  0  0  0  0
   13.8462    1.6179    0.0000 C   0  0  0  0  0  0  0  0  0  0  0  0
   16.4037   -1.9119    0.0000 C   0  0  0  0  0  0  0  0  0  0  0  0
   17.2523   -3.4218    0.0000 C   0  0  0  0  0  0  0  0  0  0  0  0
   17.2754   -1.4219    0.0000 C   0  0  0  0  0  0  0  0  0  0  0  0
   18.1240   -2.9318    0.0000 C   0  0  0  0  0  0  0  0  0  0  0  0
   18.1356   -1.9319    0.0000 C   0  0  0  0  0  0  0  0  0  0  0  0
    9.7841   -3.6454    0.0000 H   0  0  0  0  0  0  0  0  0  0  0  0
   10.0049   -2.5279    0.0000 H   0  0  0  0  0  0  0  0  0  0  0  0
   11.7368   -2.5480    0.0000 H   0  0  0  0  0  0  0  0  0  0  0  0
    8.9354   -2.1355    0.0000 H   0  0  0  0  0  0  0  0  0  0  0  0
    4.5981   -3.6462    0.0000 H   0  0  0  0  0  0  0  0  0  0  0  0
    4.2690   -3.4562    0.0000 H   0  0  0  0  0  0  0  0  0  0  0  0
    6.0010   -3.4562    0.0000 H   0  0  0  0  0  0  0  0  0  0  0  0
    4.2690   -1.2162    0.0000 H   0  0  0  0  0  0  0  0  0  0  0  0
    9.8144   -1.0256    0.0000 H   0  0  0  0  0  0  0  0  0  0  0  0
    6.0010   -1.2162    0.0000 H   0  0  0  0  0  0  0  0  0  0  0  0
   11.6525   -3.8320    0.0000 H   0  0  0  0  0  0  0  0  0  0  0  0
   12.4495   -3.8412    0.0000 H   0  0  0  0  0  0  0  0  0  0  0  0
    3.8015   -0.8612    0.0000 H   0  0  0  0  0  0  0  0  0  0  0  0
    3.0044   -0.8612    0.0000 H   0  0  0  0  0  0  0  0  0  0  0  0
   10.8463   -4.6578    0.0000 H   0  0  0  0  0  0  0  0  0  0  0  0
    8.5854   -3.9416    0.0000 H   0  0  0  0  0  0  0  0  0  0  0  0
    8.0753   -1.6256    0.0000 H   0  0  0  0  0  0  0  0  0  0  0  0
    4.5981   -4.6461    0.0000 H   0  0  0  0  0  0  0  0  0  0  0  0
    3.4030   -3.9562    0.0000 H   0  0  0  0  0  0  0  0  0  0  0  0
    6.8671   -3.9562    0.0000 H   0  0  0  0  0  0  0  0  0  0  0  0
    8.6201   -0.9418    0.0000 H   0  0  0  0  0  0  0  0  0  0  0  0
    2.0000   -1.5261    0.0000 H   0  0  0  0  0  0  0  0  0  0  0  0
    5.4277   -0.1177    0.0000 H   0  0  0  0  0  0  0  0  0  0  0  0
    6.9053    2.3529    0.0000 H   0  0  0  0  0  0  0  0  0  0  0  0
   11.2354    0.5281    0.0000 H   0  0  0  0  0  0  0  0  0  0  0  0
    9.8606    2.9741    0.0000 H   0  0  0  0  0  0  0  0  0  0  0  0
   14.6673   -2.2718    0.0000 H   0  0  0  0  0  0  0  0  0  0  0  0
    5.1304    2.3629    0.0000 H   0  0  0  0  0  0  0  0  0  0  0  0
   15.5132   -4.0217    0.0000 H   0  0  0  0  0  0  0  0  0  0  0  0
   13.0048    3.7478    0.0000 H   0  0  0  0  0  0  0  0  0  0  0  0
   10.7333    5.1911    0.0000 H   0  0  0  0  0  0  0  0  0  0  0  0
    9.8837    4.9740    0.0000 H   0  0  0  0  0  0  0  0  0  0  0  0
   10.1009    4.1245    0.0000 H   0  0  0  0  0  0  0  0  0  0  0  0
   14.1500    1.0774    0.0000 H   0  0  0  0  0  0  0  0  0  0  0  0
   14.3867    1.9217    0.0000 H   0  0  0  0  0  0  0  0  0  0  0  0
   13.5425    2.1584    0.0000 H   0  0  0  0  0  0  0  0  0  0  0  0
   15.8704   -1.5957    0.0000 H   0  0  0  0  0  0  0  0  0  0  0  0
   17.2451   -4.0417    0.0000 H   0  0  0  0  0  0  0  0  0  0  0  0
   17.2826   -0.8020    0.0000 H   0  0  0  0  0  0  0  0  0  0  0  0
   18.6574   -3.2480    0.0000 H   0  0  0  0  0  0  0  0  0  0  0  0
   19.5407   -1.7581    0.0000 H   0  0  0  0  0  0  0  0  0  0  0  0
  1 22  1  0  0  0  0
  1 28  1  0  0  0  0
  2 27  1  0  0  0  0
  2 29  1  0  0  0  0
  3 28  1  0  0  0  0
  3 32  1  0  0  0  0
  4 29  1  0  0  0  0
  4 33  1  0  0  0  0
  5 20  1  0  0  0  0
  5 72  1  0  0  0  0
  6 21  1  0  0  0  0
  6 73  1  0  0  0  0
  7 23  1  0  0  0  0
  7 74  1  0  0  0  0
  8 24  1  0  0  0  0
  8 75  1  0  0  0  0
  9 25  1  0  0  0  0
  9 76  1  0  0  0  0
 10 26  1  0  0  0  0
 10 77  1  0  0  0  0
 11 30  1  0  0  0  0
 11 42  1  0  0  0  0
 12 31  1  0  0  0  0
 12 79  1  0  0  0  0
 13 36  1  0  0  0  0
 13 37  2  0  0  0  0
 14 41  1  0  0  0  0
 14 85  1  0  0  0  0
 15 42  2  0  0  0  0
 16 46  1  0  0  0  0
 16 51  1  0  0  0  0
 17 47  1  0  0  0  0
 17 52  1  0  0  0  0
 18 48  1  0  0  0  0
 18 87  1  0  0  0  0
 19 57  1  0  0  0  0
 19 98  1  0  0  0  0
 20 21  1  0  0  0  0
 20 22  1  0  0  0  0
 20 58  1  0  0  0  0
 21 23  1  0  0  0  0
 21 59  1  0  0  0  0
 22 30  1  0  0  0  0
 22 60  1  0  0  0  0
 23 28  1  0  0  0  0
 23 61  1  0  0  0  0
 24 25  1  0  0  0  0
 24 26  1  0  0  0  0
 24 62  1  0  0  0  0
 25 27  1  0  0  0  0
 25 63  1  0  0  0  0
 26 29  1  0  0  0  0
 26 64  1  0  0  0  0
 27 31  1  0  0  0  0
 27 65  1  0  0  0  0
 28 66  1  0  0  0  0
 29 67  1  0  0  0  0
 30 68  1  0  0  0  0
 30 69  1  0  0  0  0
 31 70  1  0  0  0  0
 31 71  1  0  0  0  0
 32 35  1  0  0  0  0
 32 36  2  0  0  0  0
 33 34  1  0  0  0  0
 33 38  2  0  0  0  0
 34 35  2  0  0  0  0
 34 37  1  0  0  0  0
 35 78  1  0  0  0  0
 36 40  1  0  0  0  0
 37 39  1  0  0  0  0
 38 41  1  0  0  0  0
 38 80  1  0  0  0  0
 39 41  2  0  0  0  0
 39 81  1  0  0  0  0
 40 43  2  0  0  0  0
 40 44  1  0  0  0  0
 42 45  1  0  0  0  0
 43 47  1  0  0  0  0
 43 82  1  0  0  0  0
 44 46  2  0  0  0  0
 44 83  1  0  0  0  0
 45 49  2  3  0  0  0
 45 84  1  0  0  0  0
 46 48  1  0  0  0  0
 47 48  2  0  0  0  0
 49 50  1  0  0  0  0
 49 86  1  0  0  0  0
 50 53  2  0  0  0  0
 50 54  1  0  0  0  0
 51 88  1  0  0  0  0
 51 89  1  0  0  0  0
 51 90  1  0  0  0  0
 52 91  1  0  0  0  0
 52 92  1  0  0  0  0
 52 93  1  0  0  0  0
 53 55  1  0  0  0  0
 53 94  1  0  0  0  0
 54 56  2  0  0  0  0
 54 95  1  0  0  0  0
 55 57  2  0  0  0  0
 55 96  1  0  0  0  0
 56 57  1  0  0  0  0
 56 97  1  0  0  0  0
M  CHG  1  13   1
M  END
>  <PUBCHEM_COMPOUND_CID>
74977123

>  <PUBCHEM_COMPOUND_CANONICALIZED>
1

>  <PUBCHEM_CACTVS_COMPLEXITY>
1290

>  <PUBCHEM_CACTVS_HBOND_ACCEPTOR>
18

>  <PUBCHEM_CACTVS_HBOND_DONOR>
10

>  <PUBCHEM_CACTVS_ROTATABLE_BOND>
13

>  <PUBCHEM_CACTVS_SUBSKEYS>
AAADcfB8PgAAAAAAAAAAAAAAAAAAAAAAAAA0aNECAAAAAACR9AAAGgAACAAADBSwmAMyDsAABkCIAqDSCAICCAAkIAAIiAFGiMgdNzaGNR6ieWOl4BUPuYfK7PzOIAABCAAIQABAAAIQABCAAAAAAAAAAA==

>  <PUBCHEM_IUPAC_OPENEYE_NAME>
[3,4,5-trihydroxy-6-[7-hydroxy-2-(4-hydroxy-3,5-dimethoxy-phenyl)-5-[3,4,5-trihydroxy-6-(hydroxymethyl)tetrahydropyran-2-yl]oxy-chromenylium-3-yl]oxy-tetrahydropyran-2-yl]methyl 3-(4-hydroxyphenyl)prop-2-enoate

>  <PUBCHEM_IUPAC_CAS_NAME>
3-(4-hydroxyphenyl)-2-propenoic acid [3,4,5-trihydroxy-6-[[7-hydroxy-2-(4-hydroxy-3,5-dimethoxyphenyl)-5-[[3,4,5-trihydroxy-6-(hydroxymethyl)-2-oxanyl]oxy]-1-benzopyrylium-3-yl]oxy]-2-oxanyl]methyl ester

>  <PUBCHEM_IUPAC_NAME_MARKUP>
[3,4,5-trihydroxy-6-[7-hydroxy-2-(4-hydroxy-3,5-dimethoxyphenyl)-5-[3,4,5-trihydroxy-6-(hydroxymethyl)oxan-2-yl]oxychromenylium-3-yl]oxyoxan-2-yl]methyl 3-(4-hydroxyphenyl)prop-2-enoate

>  <PUBCHEM_IUPAC_NAME>
[3,4,5-trihydroxy-6-[7-hydroxy-2-(4-hydroxy-3,5-dimethoxyphenyl)-5-[3,4,5-trihydroxy-6-(hydroxymethyl)oxan-2-yl]oxychromenylium-3-yl]oxyoxan-2-yl]methyl 3-(4-hydroxyphenyl)prop-2-enoate

>  <PUBCHEM_IUPAC_SYSTEMATIC_NAME>
[6-[2-(3,5-dimethoxy-4-oxidanyl-phenyl)-5-[6-(hydroxymethyl)-3,4,5-tris(oxidanyl)oxan-2-yl]oxy-7-oxidanyl-chromenylium-3-yl]oxy-3,4,5-tris(oxidanyl)oxan-2-yl]methyl 3-(4-hydroxyphenyl)prop-2-enoate

>  <PUBCHEM_IUPAC_TRADITIONAL_NAME>
3-(4-hydroxyphenyl)acrylic acid [3,4,5-trihydroxy-6-[[7-hydroxy-2-(4-hydroxy-3,5-dimethoxy-phenyl)-5-(3,4,5-trihydroxy-6-methylol-tetrahydropyran-2-yl)oxy-1-benzopyrylium-3-yl]oxy]tetrahydropyran-2-yl]methyl ester

>  <PUBCHEM_IUPAC_INCHI>
InChI=1S/C38H40O19/c1-50-23-9-17(10-24(51-2)29(23)43)36-25(13-20-21(53-36)11-19(41)12-22(20)54-37-34(48)32(46)30(44)26(14-39)56-37)55-38-35(49)33(47)31(45)27(57-38)15-52-28(42)8-5-16-3-6-18(40)7-4-16/h3-13,26-27,30-35,37-39,44-49H,14-15H2,1-2H3,(H2-,40,41,42,43)/p+1

>  <PUBCHEM_IUPAC_INCHIKEY>
KGEHZUCHEKVXEU-UHFFFAOYSA-O

>  <PUBCHEM_EXACT_MASS>
801.22420407

>  <PUBCHEM_MOLECULAR_FORMULA>
C38H41O19+

>  <PUBCHEM_MOLECULAR_WEIGHT>
801.7

>  <PUBCHEM_SMILES>
COC1=CC(=CC(=C1O)OC)C2=C(C=C3C(=CC(=CC3=[O+]2)O)OC4C(C(C(C(O4)CO)O)O)O)OC5C(C(C(C(O5)COC(=O)C=CC6=CC=C(C=C6)O)O)O)O

>  <PUBCHEM_OPENEYE_CAN_SMILES>
COC1=CC(=CC(=C1O)OC)C2=C(C=C3C(=CC(=CC3=[O+]2)O)OC4C(C(C(C(O4)CO)O)O)O)OC5C(C(C(C(O5)COC(=O)C=CC6=CC=C(C=C6)O)O)O)O

>  <PUBCHEM_OPENEYE_ISO_SMILES>
COC1=CC(=CC(=C1O)OC)C2=C(C=C3C(=CC(=CC3=[O+]2)O)OC4C(C(C(C(O4)CO)O)O)O)OC5C(C(C(C(O5)COC(=O)C=CC6=CC=C(C=C6)O)O)O)O

>  <PUBCHEM_CACTVS_TPSA>
285

>  <PUBCHEM_MONOISOTOPIC_WEIGHT>
801.22420407

>  <PUBCHEM_TOTAL_CHARGE>
1

>  <PUBCHEM_HEAVY_ATOM_COUNT>
57

>  <PUBCHEM_ATOM_DEF_STEREO_COUNT>
0

>  <PUBCHEM_ATOM_UDEF_STEREO_COUNT>
10

>  <PUBCHEM_BOND_DEF_STEREO_COUNT>
0

>  <PUBCHEM_BOND_UDEF_STEREO_COUNT>
1

>  <PUBCHEM_ISOTOPIC_ATOM_COUNT>
0

>  <PUBCHEM_COMPONENT_COUNT>
1

>  <PUBCHEM_CACTVS_TAUTO_COUNT>
-1

>  <PUBCHEM_COORDINATE_TYPE>
1
5
255

>  <PUBCHEM_BONDANNOTATIONS>
26  10  3
13  36  8
13  37  8
22  30  3
27  31  3
28  3  3
32  35  8
32  36  8
33  34  8
33  38  8
34  35  8
34  37  8
37  39  8
38  41  8
39  41  8
29  4  3
40  43  8
40  44  8
43  47  8
44  46  8
45  49  1
46  48  8
47  48  8
20  5  3
50  53  8
50  54  8
53  55  8
54  56  8
55  57  8
56  57  8
21  6  3
23  7  3
24  8  3
25  9  3

$$$$
