74978261
 OpenBabel06082519392D

 97102  0  0  1  0  0  0  0  0999 V2000
    6.8779   -3.1330    0.0000 O   0  0  0  0  0  0  0  0  0  0  0  0
    5.1459   -1.1329    0.0000 O   0  0  0  0  0  0  0  0  0  0  0  0
    6.0119   -4.6330    0.0000 O   0  0  0  0  0  0  0  0  0  0  0  0
    6.8779   -1.1329    0.0000 O   0  0  0  0  0  0  0  0  0  0  0  0
    5.1459   -4.1330    0.0000 O   0  0  0  0  0  0  0  0  0  0  0  0
    3.4138   -3.1330    0.0000 O   0  0  0  0  0  0  0  0  0  0  0  0
    8.6100   -4.1330    0.0000 O   0  0  0  0  0  0  0  0  0  0  0  0
    8.6100   -6.1330    0.0000 O   0  0  0  0  0  0  0  0  0  0  0  0
    6.8779   -7.1330    0.0000 O   0  0  0  0  0  0  0  0  0  0  0  0
    5.1396    5.9396    0.0000 O   0  0  0  0  0  0  0  0  0  0  0  0
    2.5478   -1.6329    0.0000 O   0  0  0  0  0  0  0  0  0  0  0  0
    4.2799   -5.6330    0.0000 O   0  0  0  0  0  0  0  0  0  0  0  0
    5.9998    4.4363    0.0000 O   0  0  0  0  0  0  0  0  0  0  0  0
    2.5357    4.4496    0.0000 O   0  0  0  0  0  0  0  0  0  0  0  0
    2.5434    6.4496    0.0000 O   0  0  0  0  0  0  0  0  0  0  0  0
    4.2639    3.4430    0.0000 O   0  0  0  0  0  0  0  0  0  0  0  0
    7.7440    1.3671    0.0000 O   0  0  0  0  0  0  0  0  0  0  0  0
    5.1459   -0.1330    0.0000 O   0  0  0  0  0  0  0  0  0  0  0  0
    4.2417    1.3639    0.0000 O   0  0  0  0  0  0  0  0  0  0  0  0
   11.2081    0.3670    0.0000 O   0  0  0  0  0  0  0  0  0  0  0  0
   11.2081   -1.6329    0.0000 O   0  0  0  0  0  0  0  0  0  0  0  0
    6.0119   -2.6330    0.0000 C   0  0  3  0  0  0  0  0  0  0  0  0
    5.1459   -3.1330    0.0000 C   0  0  3  0  0  0  0  0  0  0  0  0
    4.2799   -2.6330    0.0000 C   0  0  3  0  0  0  0  0  0  0  0  0
    6.8779   -4.1330    0.0000 C   0  0  3  0  0  0  0  0  0  0  0  0
    7.7440   -4.6330    0.0000 C   0  0  3  0  0  0  0  0  0  0  0  0
    6.0119   -1.6329    0.0000 C   0  0  3  0  0  0  0  0  0  0  0  0
    4.2799   -1.6329    0.0000 C   0  0  3  0  0  0  0  0  0  0  0  0
    7.7440   -5.6330    0.0000 C   0  0  3  0  0  0  0  0  0  0  0  0
    6.8779   -6.1330    0.0000 C   0  0  3  0  0  0  0  0  0  0  0  0
    6.0119   -5.6330    0.0000 C   0  0  3  0  0  0  0  0  0  0  0  0
    3.4138   -1.1329    0.0000 C   0  0  0  0  0  0  0  0  0  0  0  0
    5.1459   -6.1330    0.0000 C   0  0  0  0  0  0  0  0  0  0  0  0
    3.4037    4.9463    0.0000 C   0  0  3  0  0  0  0  0  0  0  0  0
    3.4075    5.9463    0.0000 C   0  0  3  0  0  0  0  0  0  0  0  0
    4.2678    4.4430    0.0000 C   0  0  3  0  0  0  0  0  0  0  0  0
    4.2755    6.4430    0.0000 C   0  0  3  0  0  0  0  0  0  0  0  0
    5.1357    4.9396    0.0000 C   0  0  3  0  0  0  0  0  0  0  0  0
    6.8779   -0.1330    0.0000 C   0  0  0  0  0  0  0  0  0  0  0  0
    4.2793    7.4430    0.0000 C   0  0  0  0  0  0  0  0  0  0  0  0
    7.7440    0.3670    0.0000 C   0  0  0  0  0  0  0  0  0  0  0  0
    6.0119    0.3670    0.0000 C   0  0  0  0  0  0  0  0  0  0  0  0
    6.0119    1.3671    0.0000 C   0  0  0  0  0  0  0  0  0  0  0  0
    6.8779    1.8670    0.0000 C   0  0  0  0  0  0  0  0  0  0  0  0
    5.9960    3.4363    0.0000 C   0  0  0  0  0  0  0  0  0  0  0  0
    6.8940    2.9086    0.0000 C   0  0  0  0  0  0  0  0  0  0  0  0
    8.6100   -0.1330    0.0000 C   0  0  0  0  0  0  0  0  0  0  0  0
    5.1019    1.8739    0.0000 C   0  0  0  0  0  0  0  0  0  0  0  0
    5.0939    2.9155    0.0000 C   0  0  0  0  0  0  0  0  0  0  0  0
    9.4760    0.3670    0.0000 C   0  0  0  0  0  0  0  0  0  0  0  0
    8.6100   -1.1329    0.0000 C   0  0  0  0  0  0  0  0  0  0  0  0
   10.3420   -0.1330    0.0000 C   0  0  0  0  0  0  0  0  0  0  0  0
    9.4760   -1.6329    0.0000 C   0  0  0  0  0  0  0  0  0  0  0  0
   10.3420   -1.1329    0.0000 C   0  0  0  0  0  0  0  0  0  0  0  0
   11.2081    1.3671    0.0000 C   0  0  0  0  0  0  0  0  0  0  0  0
    6.0119   -3.2529    0.0000 H   0  0  0  0  0  0  0  0  0  0  0  0
    4.6090   -3.4430    0.0000 H   0  0  0  0  0  0  0  0  0  0  0  0
    3.7429   -2.3230    0.0000 H   0  0  0  0  0  0  0  0  0  0  0  0
    7.4149   -3.8230    0.0000 H   0  0  0  0  0  0  0  0  0  0  0  0
    8.2809   -4.9430    0.0000 H   0  0  0  0  0  0  0  0  0  0  0  0
    6.0119   -1.0130    0.0000 H   0  0  0  0  0  0  0  0  0  0  0  0
    4.2799   -1.0130    0.0000 H   0  0  0  0  0  0  0  0  0  0  0  0
    8.2809   -5.3229    0.0000 H   0  0  0  0  0  0  0  0  0  0  0  0
    7.4149   -6.4430    0.0000 H   0  0  0  0  0  0  0  0  0  0  0  0
    5.4750   -5.3229    0.0000 H   0  0  0  0  0  0  0  0  0  0  0  0
    3.8124   -0.6580    0.0000 H   0  0  0  0  0  0  0  0  0  0  0  0
    3.0153   -0.6580    0.0000 H   0  0  0  0  0  0  0  0  0  0  0  0
    4.7474   -6.6079    0.0000 H   0  0  0  0  0  0  0  0  0  0  0  0
    5.5444   -6.6079    0.0000 H   0  0  0  0  0  0  0  0  0  0  0  0
    4.6090   -4.4430    0.0000 H   0  0  0  0  0  0  0  0  0  0  0  0
    3.4138   -3.7530    0.0000 H   0  0  0  0  0  0  0  0  0  0  0  0
    9.1469   -4.4430    0.0000 H   0  0  0  0  0  0  0  0  0  0  0  0
    3.9418    5.2542    0.0000 H   0  0  0  0  0  0  0  0  0  0  0  0
    2.8694    5.6384    0.0000 H   0  0  0  0  0  0  0  0  0  0  0  0
    8.6100   -6.7530    0.0000 H   0  0  0  0  0  0  0  0  0  0  0  0
    3.7296    4.1350    0.0000 H   0  0  0  0  0  0  0  0  0  0  0  0
    6.3410   -7.4430    0.0000 H   0  0  0  0  0  0  0  0  0  0  0  0
    4.8136    6.7509    0.0000 H   0  0  0  0  0  0  0  0  0  0  0  0
    5.1333    4.3196    0.0000 H   0  0  0  0  0  0  0  0  0  0  0  0
    2.0109   -1.3230    0.0000 H   0  0  0  0  0  0  0  0  0  0  0  0
    4.8993    7.4406    0.0000 H   0  0  0  0  0  0  0  0  0  0  0  0
    4.2817    8.0630    0.0000 H   0  0  0  0  0  0  0  0  0  0  0  0
    3.6593    7.4453    0.0000 H   0  0  0  0  0  0  0  0  0  0  0  0
    3.7429   -5.9430    0.0000 H   0  0  0  0  0  0  0  0  0  0  0  0
    2.0000    4.7617    0.0000 H   0  0  0  0  0  0  0  0  0  0  0  0
    2.5458    7.0696    0.0000 H   0  0  0  0  0  0  0  0  0  0  0  0
    3.7258    3.1351    0.0000 H   0  0  0  0  0  0  0  0  0  0  0  0
    7.4345    3.2123    0.0000 H   0  0  0  0  0  0  0  0  0  0  0  0
    4.5558    3.2234    0.0000 H   0  0  0  0  0  0  0  0  0  0  0  0
    9.4760    0.9870    0.0000 H   0  0  0  0  0  0  0  0  0  0  0  0
    8.0730   -1.4430    0.0000 H   0  0  0  0  0  0  0  0  0  0  0  0
    3.7012    1.6677    0.0000 H   0  0  0  0  0  0  0  0  0  0  0  0
    9.4760   -2.2529    0.0000 H   0  0  0  0  0  0  0  0  0  0  0  0
   11.2081   -2.2529    0.0000 H   0  0  0  0  0  0  0  0  0  0  0  0
   11.8281    1.3671    0.0000 H   0  0  0  0  0  0  0  0  0  0  0  0
   11.2081    1.9870    0.0000 H   0  0  0  0  0  0  0  0  0  0  0  0
   10.5881    1.3671    0.0000 H   0  0  0  0  0  0  0  0  0  0  0  0
  1 22  1  0  0  0  0
  1 25  1  0  0  0  0
  2 27  1  0  0  0  0
  2 28  1  0  0  0  0
  3 25  1  0  0  0  0
  3 31  1  0  0  0  0
  4 27  1  0  0  0  0
  4 39  1  0  0  0  0
  5 23  1  0  0  0  0
  5 70  1  0  0  0  0
  6 24  1  0  0  0  0
  6 71  1  0  0  0  0
  7 26  1  0  0  0  0
  7 72  1  0  0  0  0
  8 29  1  0  0  0  0
  8 75  1  0  0  0  0
  9 30  1  0  0  0  0
  9 77  1  0  0  0  0
 10 37  1  0  0  0  0
 10 38  1  0  0  0  0
 11 32  1  0  0  0  0
 11 80  1  0  0  0  0
 12 33  1  0  0  0  0
 12 84  1  0  0  0  0
 13 38  1  0  0  0  0
 13 45  1  0  0  0  0
 14 34  1  0  0  0  0
 14 85  1  0  0  0  0
 15 35  1  0  0  0  0
 15 86  1  0  0  0  0
 16 36  1  0  0  0  0
 16 87  1  0  0  0  0
 17 41  1  0  0  0  0
 17 44  1  0  0  0  0
 18 42  2  0  0  0  0
 19 48  1  0  0  0  0
 19 92  1  0  0  0  0
 20 52  1  0  0  0  0
 20 55  1  0  0  0  0
 21 54  1  0  0  0  0
 21 94  1  0  0  0  0
 22 23  1  0  0  0  0
 22 27  1  0  0  0  0
 22 56  1  0  0  0  0
 23 24  1  0  0  0  0
 23 57  1  0  0  0  0
 24 28  1  0  0  0  0
 24 58  1  0  0  0  0
 25 26  1  0  0  0  0
 25 59  1  0  0  0  0
 26 29  1  0  0  0  0
 26 60  1  0  0  0  0
 27 61  1  0  0  0  0
 28 32  1  0  0  0  0
 28 62  1  0  0  0  0
 29 30  1  0  0  0  0
 29 63  1  0  0  0  0
 30 31  1  0  0  0  0
 30 64  1  0  0  0  0
 31 33  1  0  0  0  0
 31 65  1  0  0  0  0
 32 66  1  0  0  0  0
 32 67  1  0  0  0  0
 33 68  1  0  0  0  0
 33 69  1  0  0  0  0
 34 35  1  0  0  0  0
 34 36  1  0  0  0  0
 34 73  1  0  0  0  0
 35 37  1  0  0  0  0
 35 74  1  0  0  0  0
 36 38  1  0  0  0  0
 36 76  1  0  0  0  0
 37 40  1  0  0  0  0
 37 78  1  0  0  0  0
 38 79  1  0  0  0  0
 39 41  2  0  0  0  0
 39 42  1  0  0  0  0
 40 81  1  0  0  0  0
 40 82  1  0  0  0  0
 40 83  1  0  0  0  0
 41 47  1  0  0  0  0
 42 43  1  0  0  0  0
 43 44  1  0  0  0  0
 43 48  2  0  0  0  0
 44 46  2  0  0  0  0
 45 46  1  0  0  0  0
 45 49  2  0  0  0  0
 46 88  1  0  0  0  0
 47 50  2  0  0  0  0
 47 51  1  0  0  0  0
 48 49  1  0  0  0  0
 49 89  1  0  0  0  0
 50 52  1  0  0  0  0
 50 90  1  0  0  0  0
 51 53  2  0  0  0  0
 51 91  1  0  0  0  0
 52 54  2  0  0  0  0
 53 54  1  0  0  0  0
 53 93  1  0  0  0  0
 55 95  1  0  0  0  0
 55 96  1  0  0  0  0
 55 97  1  0  0  0  0
M  END
>  <PUBCHEM_COMPOUND_CID>
74978261

>  <PUBCHEM_COMPOUND_CANONICALIZED>
1

>  <PUBCHEM_CACTVS_COMPLEXITY>
1340

>  <PUBCHEM_CACTVS_HBOND_ACCEPTOR>
21

>  <PUBCHEM_CACTVS_HBOND_DONOR>
12

>  <PUBCHEM_CACTVS_ROTATABLE_BOND>
10

>  <PUBCHEM_CACTVS_SUBSKEYS>
AAADcfB8PgAAAAAAAAAAAAAAAAAAAAAAAAA0aJECAAAAAACBQAAAGgAACAAADBSwmAMyDoAABgCIAqBSAAICCAAkIAAIiAFGiMgdNzaGNR6ieWOl4BUPuQfI7LzOIAABCAAIQABAAAIQABCAAAAAAAAAAA==

>  <PUBCHEM_IUPAC_OPENEYE_NAME>
3-[4,5-dihydroxy-6-(hydroxymethyl)-3-[3,4,5-trihydroxy-6-(hydroxymethyl)tetrahydropyran-2-yl]oxy-tetrahydropyran-2-yl]oxy-5-hydroxy-2-(4-hydroxy-3-methoxy-phenyl)-7-(3,4,5-trihydroxy-6-methyl-tetrahydropyran-2-yl)oxy-chromen-4-one

>  <PUBCHEM_IUPAC_CAS_NAME>
3-[[4,5-dihydroxy-6-(hydroxymethyl)-3-[[3,4,5-trihydroxy-6-(hydroxymethyl)-2-oxanyl]oxy]-2-oxanyl]oxy]-5-hydroxy-2-(4-hydroxy-3-methoxyphenyl)-7-[(3,4,5-trihydroxy-6-methyl-2-oxanyl)oxy]-1-benzopyran-4-one

>  <PUBCHEM_IUPAC_NAME_MARKUP>
3-[4,5-dihydroxy-6-(hydroxymethyl)-3-[3,4,5-trihydroxy-6-(hydroxymethyl)oxan-2-yl]oxyoxan-2-yl]oxy-5-hydroxy-2-(4-hydroxy-3-methoxyphenyl)-7-(3,4,5-trihydroxy-6-methyloxan-2-yl)oxychromen-4-one

>  <PUBCHEM_IUPAC_NAME>
3-[4,5-dihydroxy-6-(hydroxymethyl)-3-[3,4,5-trihydroxy-6-(hydroxymethyl)oxan-2-yl]oxyoxan-2-yl]oxy-5-hydroxy-2-(4-hydroxy-3-methoxyphenyl)-7-(3,4,5-trihydroxy-6-methyloxan-2-yl)oxychromen-4-one

>  <PUBCHEM_IUPAC_SYSTEMATIC_NAME>
3-[6-(hydroxymethyl)-3-[6-(hydroxymethyl)-3,4,5-tris(oxidanyl)oxan-2-yl]oxy-4,5-bis(oxidanyl)oxan-2-yl]oxy-2-(3-methoxy-4-oxidanyl-phenyl)-7-[6-methyl-3,4,5-tris(oxidanyl)oxan-2-yl]oxy-5-oxidanyl-chromen-4-one

>  <PUBCHEM_IUPAC_TRADITIONAL_NAME>
3-[4,5-dihydroxy-6-methylol-3-(3,4,5-trihydroxy-6-methylol-tetrahydropyran-2-yl)oxy-tetrahydropyran-2-yl]oxy-5-hydroxy-2-(4-hydroxy-3-methoxy-phenyl)-7-(3,4,5-trihydroxy-6-methyl-tetrahydropyran-2-yl)oxy-chromone

>  <PUBCHEM_IUPAC_INCHI>
InChI=1S/C34H42O21/c1-10-20(39)24(43)27(46)32(49-10)50-12-6-14(38)19-16(7-12)51-29(11-3-4-13(37)15(5-11)48-2)30(23(19)42)54-34-31(26(45)22(41)18(9-36)53-34)55-33-28(47)25(44)21(40)17(8-35)52-33/h3-7,10,17-18,20-22,24-28,31-41,43-47H,8-9H2,1-2H3

>  <PUBCHEM_IUPAC_INCHIKEY>
FJQKXKNZQQBTDD-UHFFFAOYSA-N

>  <PUBCHEM_XLOGP3_AA>
-2.2

>  <PUBCHEM_EXACT_MASS>
786.22185834

>  <PUBCHEM_MOLECULAR_FORMULA>
C34H42O21

>  <PUBCHEM_MOLECULAR_WEIGHT>
786.7

>  <PUBCHEM_SMILES>
CC1C(C(C(C(O1)OC2=CC(=C3C(=C2)OC(=C(C3=O)OC4C(C(C(C(O4)CO)O)O)OC5C(C(C(C(O5)CO)O)O)O)C6=CC(=C(C=C6)O)OC)O)O)O)O

>  <PUBCHEM_OPENEYE_CAN_SMILES>
CC1C(C(C(C(O1)OC2=CC(=C3C(=C2)OC(=C(C3=O)OC4C(C(C(C(O4)CO)O)O)OC5C(C(C(C(O5)CO)O)O)O)C6=CC(=C(C=C6)O)OC)O)O)O)O

>  <PUBCHEM_OPENEYE_ISO_SMILES>
CC1C(C(C(C(O1)OC2=CC(=C3C(=C2)OC(=C(C3=O)OC4C(C(C(C(O4)CO)O)O)OC5C(C(C(C(O5)CO)O)O)O)C6=CC(=C(C=C6)O)OC)O)O)O)O

>  <PUBCHEM_CACTVS_TPSA>
334

>  <PUBCHEM_MONOISOTOPIC_WEIGHT>
786.22185834

>  <PUBCHEM_TOTAL_CHARGE>
0

>  <PUBCHEM_HEAVY_ATOM_COUNT>
55

>  <PUBCHEM_ATOM_DEF_STEREO_COUNT>
0

>  <PUBCHEM_ATOM_UDEF_STEREO_COUNT>
15

>  <PUBCHEM_BOND_DEF_STEREO_COUNT>
0

>  <PUBCHEM_BOND_UDEF_STEREO_COUNT>
0

>  <PUBCHEM_ISOTOPIC_ATOM_COUNT>
0

>  <PUBCHEM_COMPONENT_COUNT>
1

>  <PUBCHEM_CACTVS_TAUTO_COUNT>
-1

>  <PUBCHEM_COORDINATE_TYPE>
1
5
255

>  <PUBCHEM_BONDANNOTATIONS>
22  1  3
25  1  3
38  13  3
34  14  3
35  15  3
36  16  3
17  41  8
17  44  8
28  32  3
31  33  3
37  40  3
39  41  8
39  42  8
27  4  3
42  43  8
43  44  8
43  48  8
44  46  8
45  46  8
45  49  8
47  50  8
47  51  8
48  49  8
23  5  3
50  52  8
51  53  8
52  54  8
53  54  8
24  6  3
26  7  3
29  8  3
30  9  3

$$$$
