99938
 OpenBabel06082519392D

 49 51  0  0  1  0  0  0  0  0999 V2000
    5.6332    2.8031    0.0000 O   0  0  0  0  0  0  0  0  0  0  0  0
    5.6720    0.2158    0.0000 O   0  0  0  0  0  0  0  0  0  0  0  0
    3.9696    2.1645    0.0000 O   0  0  0  0  0  0  0  0  0  0  0  0
    9.5033    3.3071    0.0000 O   0  0  0  0  0  0  0  0  0  0  0  0
    2.8660   -2.3061    0.0000 O   0  0  0  0  0  0  0  0  0  0  0  0
   10.9896    1.9688    0.0000 O   0  0  0  0  0  0  0  0  0  0  0  0
    4.5981   -3.3061    0.0000 O   0  0  0  0  0  0  0  0  0  0  0  0
    6.4423    1.4019    0.0000 C   0  0  3  0  0  0  0  0  0  0  0  0
    5.4641    1.1939    0.0000 C   0  0  3  0  0  0  0  0  0  0  0  0
    6.5468    2.3964    0.0000 C   0  0  0  0  0  0  0  0  0  0  0  0
    7.1854    0.7327    0.0000 C   0  0  0  0  0  0  0  0  0  0  0  0
    4.5981    0.6939    0.0000 C   0  0  0  0  0  0  0  0  0  0  0  0
    4.9641    2.0600    0.0000 C   0  0  0  0  0  0  0  0  0  0  0  0
    8.1365    1.0417    0.0000 C   0  0  0  0  0  0  0  0  0  0  0  0
    4.5981   -0.3061    0.0000 C   0  0  0  0  0  0  0  0  0  0  0  0
    8.3444    2.0199    0.0000 C   0  0  0  0  0  0  0  0  0  0  0  0
    8.8796    0.3726    0.0000 C   0  0  0  0  0  0  0  0  0  0  0  0
    3.7321   -0.8061    0.0000 C   0  0  0  0  0  0  0  0  0  0  0  0
    5.4641   -0.8061    0.0000 C   0  0  0  0  0  0  0  0  0  0  0  0
    9.2954    2.3289    0.0000 C   0  0  0  0  0  0  0  0  0  0  0  0
    3.7321   -1.8061    0.0000 C   0  0  0  0  0  0  0  0  0  0  0  0
    9.8307    0.6816    0.0000 C   0  0  0  0  0  0  0  0  0  0  0  0
    5.4641   -1.8061    0.0000 C   0  0  0  0  0  0  0  0  0  0  0  0
   10.0386    1.6598    0.0000 C   0  0  0  0  0  0  0  0  0  0  0  0
    4.5981   -2.3061    0.0000 C   0  0  0  0  0  0  0  0  0  0  0  0
   10.4544    3.6161    0.0000 C   0  0  0  0  0  0  0  0  0  0  0  0
    2.0000   -1.8061    0.0000 C   0  0  0  0  0  0  0  0  0  0  0  0
    7.0211    1.6240    0.0000 H   0  0  0  0  0  0  0  0  0  0  0  0
    7.1532    2.2675    0.0000 H   0  0  0  0  0  0  0  0  0  0  0  0
    6.7384    2.9860    0.0000 H   0  0  0  0  0  0  0  0  0  0  0  0
    6.6968    0.3510    0.0000 H   0  0  0  0  0  0  0  0  0  0  0  0
    7.4765    0.1853    0.0000 H   0  0  0  0  0  0  0  0  0  0  0  0
    4.3860    1.2766    0.0000 H   0  0  0  0  0  0  0  0  0  0  0  0
    3.9875    0.5863    0.0000 H   0  0  0  0  0  0  0  0  0  0  0  0
    5.2113   -0.1991    0.0000 H   0  0  0  0  0  0  0  0  0  0  0  0
    7.8836    2.4347    0.0000 H   0  0  0  0  0  0  0  0  0  0  0  0
    8.7507   -0.2338    0.0000 H   0  0  0  0  0  0  0  0  0  0  0  0
    3.1951   -0.4961    0.0000 H   0  0  0  0  0  0  0  0  0  0  0  0
    6.0010   -0.4961    0.0000 H   0  0  0  0  0  0  0  0  0  0  0  0
   10.2914    0.2668    0.0000 H   0  0  0  0  0  0  0  0  0  0  0  0
    6.0010   -2.1161    0.0000 H   0  0  0  0  0  0  0  0  0  0  0  0
   11.4504    1.5539    0.0000 H   0  0  0  0  0  0  0  0  0  0  0  0
    5.1350   -3.6161    0.0000 H   0  0  0  0  0  0  0  0  0  0  0  0
   10.6460    3.0264    0.0000 H   0  0  0  0  0  0  0  0  0  0  0  0
   11.0440    3.8077    0.0000 H   0  0  0  0  0  0  0  0  0  0  0  0
   10.2628    4.2057    0.0000 H   0  0  0  0  0  0  0  0  0  0  0  0
    2.3100   -1.2691    0.0000 H   0  0  0  0  0  0  0  0  0  0  0  0
    1.4631   -1.4961    0.0000 H   0  0  0  0  0  0  0  0  0  0  0  0
    1.6900   -2.3430    0.0000 H   0  0  0  0  0  0  0  0  0  0  0  0
  1 10  1  0  0  0  0
  1 13  1  0  0  0  0
  2  9  1  0  0  0  0
  2 35  1  0  0  0  0
  3 13  2  0  0  0  0
  4 20  1  0  0  0  0
  4 26  1  0  0  0  0
  5 21  1  0  0  0  0
  5 27  1  0  0  0  0
  6 24  1  0  0  0  0
  6 42  1  0  0  0  0
  7 25  1  0  0  0  0
  7 43  1  0  0  0  0
  8  9  1  0  0  0  0
  8 10  1  0  0  0  0
  8 11  1  0  0  0  0
  8 28  1  0  0  0  0
  9 12  1  0  0  0  0
  9 13  1  0  0  0  0
 10 29  1  0  0  0  0
 10 30  1  0  0  0  0
 11 14  1  0  0  0  0
 11 31  1  0  0  0  0
 11 32  1  0  0  0  0
 12 15  1  0  0  0  0
 12 33  1  0  0  0  0
 12 34  1  0  0  0  0
 14 16  2  0  0  0  0
 14 17  1  0  0  0  0
 15 18  2  0  0  0  0
 15 19  1  0  0  0  0
 16 20  1  0  0  0  0
 16 36  1  0  0  0  0
 17 22  2  0  0  0  0
 17 37  1  0  0  0  0
 18 21  1  0  0  0  0
 18 38  1  0  0  0  0
 19 23  2  0  0  0  0
 19 39  1  0  0  0  0
 20 24  2  0  0  0  0
 21 25  2  0  0  0  0
 22 24  1  0  0  0  0
 22 40  1  0  0  0  0
 23 25  1  0  0  0  0
 23 41  1  0  0  0  0
 26 44  1  0  0  0  0
 26 45  1  0  0  0  0
 26 46  1  0  0  0  0
 27 47  1  0  0  0  0
 27 48  1  0  0  0  0
 27 49  1  0  0  0  0
M  END
>  <PUBCHEM_COMPOUND_CID>
99938

>  <PUBCHEM_COMPOUND_CANONICALIZED>
1

>  <PUBCHEM_CACTVS_COMPLEXITY>
513

>  <PUBCHEM_CACTVS_HBOND_ACCEPTOR>
7

>  <PUBCHEM_CACTVS_HBOND_DONOR>
3

>  <PUBCHEM_CACTVS_ROTATABLE_BOND>
6

>  <PUBCHEM_CACTVS_SUBSKEYS>
AAADceB4OAAAAAAAAAAAAAAAAAAAASAAAAAwYAAAAAAAAAABQAAAGgAACAAADUSgmAIyDoAABgCIAiDSCAICCAAgIAAIiAFGiIgNJjKGMRqCcCMlwBELuAeK6PyOoAABAAAAQABAAAIAAACAAAAAAAAAAA==

>  <PUBCHEM_IUPAC_OPENEYE_NAME>
3-hydroxy-3,4-bis[(4-hydroxy-3-methoxy-phenyl)methyl]tetrahydrofuran-2-one

>  <PUBCHEM_IUPAC_CAS_NAME>
3-hydroxy-3,4-bis[(4-hydroxy-3-methoxyphenyl)methyl]-2-oxolanone

>  <PUBCHEM_IUPAC_NAME_MARKUP>
3-hydroxy-3,4-bis[(4-hydroxy-3-methoxyphenyl)methyl]oxolan-2-one

>  <PUBCHEM_IUPAC_NAME>
3-hydroxy-3,4-bis[(4-hydroxy-3-methoxyphenyl)methyl]oxolan-2-one

>  <PUBCHEM_IUPAC_SYSTEMATIC_NAME>
3,4-bis[(3-methoxy-4-oxidanyl-phenyl)methyl]-3-oxidanyl-oxolan-2-one

>  <PUBCHEM_IUPAC_TRADITIONAL_NAME>
3-hydroxy-3,4-divanillyl-tetrahydrofuran-2-one

>  <PUBCHEM_IUPAC_INCHI>
InChI=1S/C20H22O7/c1-25-17-8-12(3-5-15(17)21)7-14-11-27-19(23)20(14,24)10-13-4-6-16(22)18(9-13)26-2/h3-6,8-9,14,21-22,24H,7,10-11H2,1-2H3

>  <PUBCHEM_IUPAC_INCHIKEY>
ZITBJWXLODLDRH-UHFFFAOYSA-N

>  <PUBCHEM_XLOGP3_AA>
2.5

>  <PUBCHEM_EXACT_MASS>
374.13655304

>  <PUBCHEM_MOLECULAR_FORMULA>
C20H22O7

>  <PUBCHEM_MOLECULAR_WEIGHT>
374.4

>  <PUBCHEM_SMILES>
COC1=C(C=CC(=C1)CC2COC(=O)C2(CC3=CC(=C(C=C3)O)OC)O)O

>  <PUBCHEM_OPENEYE_CAN_SMILES>
COC1=C(C=CC(=C1)CC2COC(=O)C2(CC3=CC(=C(C=C3)O)OC)O)O

>  <PUBCHEM_OPENEYE_ISO_SMILES>
COC1=C(C=CC(=C1)CC2COC(=O)C2(CC3=CC(=C(C=C3)O)OC)O)O

>  <PUBCHEM_CACTVS_TPSA>
105

>  <PUBCHEM_MONOISOTOPIC_WEIGHT>
374.13655304

>  <PUBCHEM_TOTAL_CHARGE>
0

>  <PUBCHEM_HEAVY_ATOM_COUNT>
27

>  <PUBCHEM_ATOM_DEF_STEREO_COUNT>
0

>  <PUBCHEM_ATOM_UDEF_STEREO_COUNT>
2

>  <PUBCHEM_BOND_DEF_STEREO_COUNT>
0

>  <PUBCHEM_BOND_UDEF_STEREO_COUNT>
0

>  <PUBCHEM_ISOTOPIC_ATOM_COUNT>
0

>  <PUBCHEM_COMPONENT_COUNT>
1

>  <PUBCHEM_CACTVS_TAUTO_COUNT>
-1

>  <PUBCHEM_COORDINATE_TYPE>
1
5
255

>  <PUBCHEM_BONDANNOTATIONS>
14  16  8
14  17  8
15  18  8
15  19  8
16  20  8
17  22  8
18  21  8
19  23  8
9  2  3
20  24  8
21  25  8
22  24  8
23  25  8
8  11  3

$$$$
